11772639
  -OEChem-09292322472D

 48 51  0     0  0  0  0  0  0999 V2000
    2.0000   -1.9470    0.0000 Cl  0  0  0  0  0  0  0  0  0  0  0  0
    7.1962    1.0530    0.0000 N   0  0  0  0  0  0  0  0  0  0  0  0
    5.4641    0.0530    0.0000 N   0  0  0  0  0  0  0  0  0  0  0  0
   13.3385    1.3577    0.0000 N   0  0  0  0  0  0  0  0  0  0  0  0
   13.3385   -0.2518    0.0000 N   0  0  0  0  0  0  0  0  0  0  0  0
    6.3301    1.5530    0.0000 C   0  0  0  0  0  0  0  0  0  0  0  0
    7.1962    0.0530    0.0000 C   0  0  0  0  0  0  0  0  0  0  0  0
    5.4641    1.0530    0.0000 C   0  0  0  0  0  0  0  0  0  0  0  0
    6.3301   -0.4470    0.0000 C   0  0  0  0  0  0  0  0  0  0  0  0
    8.0622    1.5530    0.0000 C   0  0  0  0  0  0  0  0  0  0  0  0
    8.9282    1.0530    0.0000 C   0  0  0  0  0  0  0  0  0  0  0  0
    9.7942    1.5530    0.0000 C   0  0  0  0  0  0  0  0  0  0  0  0
    4.5981   -0.4470    0.0000 C   0  0  0  0  0  0  0  0  0  0  0  0
   10.6603    1.0530    0.0000 C   0  0  0  0  0  0  0  0  0  0  0  0
    3.7320    0.0530    0.0000 C   0  0  0  0  0  0  0  0  0  0  0  0
    4.5981   -1.4470    0.0000 C   0  0  0  0  0  0  0  0  0  0  0  0
   11.5263    1.5530    0.0000 C   0  0  0  0  0  0  0  0  0  0  0  0
   10.6603    0.0530    0.0000 C   0  0  0  0  0  0  0  0  0  0  0  0
   12.3923    1.0530    0.0000 C   0  0  0  0  0  0  0  0  0  0  0  0
    2.8660   -0.4470    0.0000 C   0  0  0  0  0  0  0  0  0  0  0  0
    3.7320   -1.9470    0.0000 C   0  0  0  0  0  0  0  0  0  0  0  0
   12.3923    0.0530    0.0000 C   0  0  0  0  0  0  0  0  0  0  0  0
   11.5263   -0.4470    0.0000 C   0  0  0  0  0  0  0  0  0  0  0  0
    2.8660   -1.4470    0.0000 C   0  0  0  0  0  0  0  0  0  0  0  0
   13.9221    0.5530    0.0000 C   0  0  0  0  0  0  0  0  0  0  0  0
    6.7287    2.0279    0.0000 H   0  0  0  0  0  0  0  0  0  0  0  0
    5.9316    2.0279    0.0000 H   0  0  0  0  0  0  0  0  0  0  0  0
    7.4082   -0.5296    0.0000 H   0  0  0  0  0  0  0  0  0  0  0  0
    7.8067    0.1606    0.0000 H   0  0  0  0  0  0  0  0  0  0  0  0
    5.2520    1.6356    0.0000 H   0  0  0  0  0  0  0  0  0  0  0  0
    4.8535    0.9453    0.0000 H   0  0  0  0  0  0  0  0  0  0  0  0
    5.9316   -0.9220    0.0000 H   0  0  0  0  0  0  0  0  0  0  0  0
    6.7287   -0.9220    0.0000 H   0  0  0  0  0  0  0  0  0  0  0  0
    8.4607    2.0279    0.0000 H   0  0  0  0  0  0  0  0  0  0  0  0
    7.6636    2.0279    0.0000 H   0  0  0  0  0  0  0  0  0  0  0  0
    8.5297    0.5780    0.0000 H   0  0  0  0  0  0  0  0  0  0  0  0
    9.3267    0.5780    0.0000 H   0  0  0  0  0  0  0  0  0  0  0  0
   10.1928    2.0279    0.0000 H   0  0  0  0  0  0  0  0  0  0  0  0
    9.3957    2.0279    0.0000 H   0  0  0  0  0  0  0  0  0  0  0  0
    3.7320    0.6730    0.0000 H   0  0  0  0  0  0  0  0  0  0  0  0
    5.1350   -1.7570    0.0000 H   0  0  0  0  0  0  0  0  0  0  0  0
   11.5263    2.1730    0.0000 H   0  0  0  0  0  0  0  0  0  0  0  0
   10.1233   -0.2570    0.0000 H   0  0  0  0  0  0  0  0  0  0  0  0
    2.3291   -0.1370    0.0000 H   0  0  0  0  0  0  0  0  0  0  0  0
    3.7320   -2.5670    0.0000 H   0  0  0  0  0  0  0  0  0  0  0  0
   11.5263   -1.0670    0.0000 H   0  0  0  0  0  0  0  0  0  0  0  0
   13.5311    1.9470    0.0000 H   0  0  0  0  0  0  0  0  0  0  0  0
   14.5421    0.5530    0.0000 H   0  0  0  0  0  0  0  0  0  0  0  0
  1 24  1  0  0  0  0
  2  6  1  0  0  0  0
  2  7  1  0  0  0  0
  2 10  1  0  0  0  0
  3  8  1  0  0  0  0
  3  9  1  0  0  0  0
  3 13  1  0  0  0  0
  4 19  1  0  0  0  0
  4 25  1  0  0  0  0
  4 47  1  0  0  0  0
  5 22  1  0  0  0  0
  5 25  2  0  0  0  0
  6  8  1  0  0  0  0
  6 26  1  0  0  0  0
  6 27  1  0  0  0  0
  7  9  1  0  0  0  0
  7 28  1  0  0  0  0
  7 29  1  0  0  0  0
  8 30  1  0  0  0  0
  8 31  1  0  0  0  0
  9 32  1  0  0  0  0
  9 33  1  0  0  0  0
 10 11  1  0  0  0  0
 10 34  1  0  0  0  0
 10 35  1  0  0  0  0
 11 12  1  0  0  0  0
 11 36  1  0  0  0  0
 11 37  1  0  0  0  0
 12 14  1  0  0  0  0
 12 38  1  0  0  0  0
 12 39  1  0  0  0  0
 13 15  2  0  0  0  0
 13 16  1  0  0  0  0
 14 17  2  0  0  0  0
 14 18  1  0  0  0  0
 15 20  1  0  0  0  0
 15 40  1  0  0  0  0
 16 21  2  0  0  0  0
 16 41  1  0  0  0  0
 17 19  1  0  0  0  0
 17 42  1  0  0  0  0
 18 23  2  0  0  0  0
 18 43  1  0  0  0  0
 19 22  2  0  0  0  0
 20 24  2  0  0  0  0
 20 44  1  0  0  0  0
 21 24  1  0  0  0  0
 21 45  1  0  0  0  0
 22 23  1  0  0  0  0
 23 46  1  0  0  0  0
 25 48  1  0  0  0  0
M  END
> <PUBCHEM_COMPOUND_CID>
11772639

> <PUBCHEM_COMPOUND_CANONICALIZED>
1

> <PUBCHEM_CACTVS_COMPLEXITY>
405

> <PUBCHEM_CACTVS_HBOND_ACCEPTOR>
3

> <PUBCHEM_CACTVS_HBOND_DONOR>
1

> <PUBCHEM_CACTVS_ROTATABLE_BOND>
5

> <PUBCHEM_CACTVS_SUBSKEYS>
AAADceB7gAAEAAAAAAAAAAAAAAAAAWAAAAA8YIAAAAAAAFgB9AAAHAIQAAAADArBHiQ10LfJkACgAyRjZACCgC2xF6AJ2aA4dpiIaKLBm5GUIAhokALIyCcQgIAOCABAQAAAACAQAICAAAAAQAAAAAAAAA==

> <PUBCHEM_IUPAC_OPENEYE_NAME>
6-[3-[4-(4-chlorophenyl)piperazin-1-yl]propyl]-1H-benzimidazole

> <PUBCHEM_IUPAC_CAS_NAME>
6-[3-[4-(4-chlorophenyl)-1-piperazinyl]propyl]-1H-benzimidazole

> <PUBCHEM_IUPAC_NAME_MARKUP>
6-[3-[4-(4-chlorophenyl)piperazin-1-yl]propyl]-1<I>H</I>-benzimidazole

> <PUBCHEM_IUPAC_NAME>
6-[3-[4-(4-chlorophenyl)piperazin-1-yl]propyl]-1H-benzimidazole

> <PUBCHEM_IUPAC_SYSTEMATIC_NAME>
6-[3-[4-(4-chlorophenyl)piperazin-1-yl]propyl]-1H-benzimidazole

> <PUBCHEM_IUPAC_TRADITIONAL_NAME>
6-[3-[4-(4-chlorophenyl)piperazino]propyl]-1H-benzimidazole

> <PUBCHEM_IUPAC_INCHI>
InChI=1S/C20H23ClN4/c21-17-4-6-18(7-5-17)25-12-10-24(11-13-25)9-1-2-16-3-8-19-20(14-16)23-15-22-19/h3-8,14-15H,1-2,9-13H2,(H,22,23)

> <PUBCHEM_IUPAC_INCHIKEY>
URHRUFGDMZQEAG-UHFFFAOYSA-N

> <PUBCHEM_XLOGP3_AA>
4.4

> <PUBCHEM_EXACT_MASS>
354.1611244

> <PUBCHEM_MOLECULAR_FORMULA>
C20H23ClN4

> <PUBCHEM_MOLECULAR_WEIGHT>
354.9

> <PUBCHEM_OPENEYE_CAN_SMILES>
C1CN(CCN1CCCC2=CC3=C(C=C2)N=CN3)C4=CC=C(C=C4)Cl

> <PUBCHEM_OPENEYE_ISO_SMILES>
C1CN(CCN1CCCC2=CC3=C(C=C2)N=CN3)C4=CC=C(C=C4)Cl

> <PUBCHEM_CACTVS_TPSA>
35.2

> <PUBCHEM_MONOISOTOPIC_WEIGHT>
354.1611244

> <PUBCHEM_TOTAL_CHARGE>
0

> <PUBCHEM_HEAVY_ATOM_COUNT>
25

> <PUBCHEM_ATOM_DEF_STEREO_COUNT>
0

> <PUBCHEM_ATOM_UDEF_STEREO_COUNT>
0

> <PUBCHEM_BOND_DEF_STEREO_COUNT>
0

> <PUBCHEM_BOND_UDEF_STEREO_COUNT>
0

> <PUBCHEM_ISOTOPIC_ATOM_COUNT>
0

> <PUBCHEM_COMPONENT_COUNT>
1

> <PUBCHEM_CACTVS_TAUTO_COUNT>
-1

> <PUBCHEM_COORDINATE_TYPE>
1
5
255

> <PUBCHEM_BONDANNOTATIONS>
13  15  8
13  16  8
14  17  8
14  18  8
15  20  8
16  21  8
17  19  8
18  23  8
19  22  8
20  24  8
21  24  8
22  23  8
4  19  8
4  25  8
5  22  8
5  25  8

$$$$
