164624434
  -OEChem-09292322432D

 57 60  0     1  0  0  0  0  0999 V2000
    5.4176    4.7871    0.0000 O   0  0  0  0  0  0  0  0  0  0  0  0
    8.0436    3.2524    0.0000 O   0  0  0  0  0  0  0  0  0  0  0  0
    2.0000   -1.3220    0.0000 O   0  0  0  0  0  0  0  0  0  0  0  0
    2.9180   -5.8117    0.0000 O   0  0  0  0  0  0  0  0  0  0  0  0
    5.4176    2.7178    0.0000 N   0  0  3  0  0  0  0  0  0  0  0  0
    3.7319   -1.3020    0.0000 N   0  0  0  0  0  0  0  0  0  0  0  0
    6.3116    3.2524    0.0000 C   0  0  1  0  0  0  0  0  0  0  0  0
    6.3116    4.2524    0.0000 C   0  0  1  0  0  0  0  0  0  0  0  0
    4.5116    3.2316    0.0000 C   0  0  0  0  0  0  0  0  0  0  0  0
    7.1776    2.7524    0.0000 C   0  0  0  0  0  0  0  0  0  0  0  0
    5.4292    1.7178    0.0000 C   0  0  0  0  0  0  0  0  0  0  0  0
    7.1776    4.7524    0.0000 C   0  0  0  0  0  0  0  0  0  0  0  0
    4.5116    4.2732    0.0000 C   0  0  0  0  0  0  0  0  0  0  0  0
    4.5690    1.2078    0.0000 C   0  0  0  0  0  0  0  0  0  0  0  0
    8.0436    4.2524    0.0000 C   0  0  0  0  0  0  0  0  0  0  0  0
    4.5806    0.2079    0.0000 C   0  0  0  0  0  0  0  0  0  0  0  0
    7.1615    5.7939    0.0000 C   0  0  0  0  0  0  0  0  0  0  0  0
    8.9536    4.7593    0.0000 C   0  0  0  0  0  0  0  0  0  0  0  0
    3.7204   -0.3021    0.0000 C   0  0  0  0  0  0  0  0  0  0  0  0
    8.0596    6.3217    0.0000 C   0  0  0  0  0  0  0  0  0  0  0  0
    8.9616    5.8009    0.0000 C   0  0  0  0  0  0  0  0  0  0  0  0
    2.8718   -1.8120    0.0000 C   0  0  0  0  0  0  0  0  0  0  0  0
    2.8833   -2.8119    0.0000 C   0  0  0  0  0  0  0  0  0  0  0  0
    2.0231   -3.3219    0.0000 C   0  0  0  0  0  0  0  0  0  0  0  0
    3.7551   -3.3019    0.0000 C   0  0  0  0  0  0  0  0  0  0  0  0
    2.0347   -4.3218    0.0000 C   0  0  0  0  0  0  0  0  0  0  0  0
    3.7666   -4.3018    0.0000 C   0  0  0  0  0  0  0  0  0  0  0  0
    2.9064   -4.8118    0.0000 C   0  0  0  0  0  0  0  0  0  0  0  0
    2.0578   -6.3217    0.0000 C   0  0  0  0  0  0  0  0  0  0  0  0
    6.3181    2.4024    0.0000 H   0  0  0  0  0  0  0  0  0  0  0  0
    6.3181    5.1024    0.0000 H   0  0  0  0  0  0  0  0  0  0  0  0
    3.9007    3.3377    0.0000 H   0  0  0  0  0  0  0  0  0  0  0  0
    4.3025    2.6479    0.0000 H   0  0  0  0  0  0  0  0  0  0  0  0
    6.7791    2.2775    0.0000 H   0  0  0  0  0  0  0  0  0  0  0  0
    7.5761    2.2775    0.0000 H   0  0  0  0  0  0  0  0  0  0  0  0
    5.6480    1.1377    0.0000 H   0  0  0  0  0  0  0  0  0  0  0  0
    6.0385    1.8326    0.0000 H   0  0  0  0  0  0  0  0  0  0  0  0
    4.3025    4.8569    0.0000 H   0  0  0  0  0  0  0  0  0  0  0  0
    3.9007    4.1672    0.0000 H   0  0  0  0  0  0  0  0  0  0  0  0
    4.3502    1.7880    0.0000 H   0  0  0  0  0  0  0  0  0  0  0  0
    3.9597    1.0931    0.0000 H   0  0  0  0  0  0  0  0  0  0  0  0
    4.7993   -0.3722    0.0000 H   0  0  0  0  0  0  0  0  0  0  0  0
    5.1898    0.3226    0.0000 H   0  0  0  0  0  0  0  0  0  0  0  0
    6.6210    6.0977    0.0000 H   0  0  0  0  0  0  0  0  0  0  0  0
    9.4869    4.4431    0.0000 H   0  0  0  0  0  0  0  0  0  0  0  0
    3.5016    0.2781    0.0000 H   0  0  0  0  0  0  0  0  0  0  0  0
    3.1111   -0.4168    0.0000 H   0  0  0  0  0  0  0  0  0  0  0  0
    8.0572    6.9417    0.0000 H   0  0  0  0  0  0  0  0  0  0  0  0
    9.4998    6.1088    0.0000 H   0  0  0  0  0  0  0  0  0  0  0  0
    4.2724   -1.6058    0.0000 H   0  0  0  0  0  0  0  0  0  0  0  0
    1.4826   -3.0181    0.0000 H   0  0  0  0  0  0  0  0  0  0  0  0
    4.2884   -2.9857    0.0000 H   0  0  0  0  0  0  0  0  0  0  0  0
    1.5014   -4.6380    0.0000 H   0  0  0  0  0  0  0  0  0  0  0  0
    4.3071   -4.6056    0.0000 H   0  0  0  0  0  0  0  0  0  0  0  0
    1.7416   -5.7884    0.0000 H   0  0  0  0  0  0  0  0  0  0  0  0
    1.5245   -6.6379    0.0000 H   0  0  0  0  0  0  0  0  0  0  0  0
    2.3740   -6.8550    0.0000 H   0  0  0  0  0  0  0  0  0  0  0  0
  1  8  1  0  0  0  0
  1 13  1  0  0  0  0
  2 10  1  0  0  0  0
  2 15  1  0  0  0  0
  3 22  2  0  0  0  0
  4 28  1  0  0  0  0
  4 29  1  0  0  0  0
  5  7  1  0  0  0  0
  5  9  1  0  0  0  0
  5 11  1  0  0  0  0
  6 19  1  0  0  0  0
  6 22  1  0  0  0  0
  6 50  1  0  0  0  0
  7  8  1  0  0  0  0
  7 10  1  0  0  0  0
  7 30  1  6  0  0  0
  8 12  1  0  0  0  0
  8 31  1  1  0  0  0
  9 13  1  0  0  0  0
  9 32  1  0  0  0  0
  9 33  1  0  0  0  0
 10 34  1  0  0  0  0
 10 35  1  0  0  0  0
 11 14  1  0  0  0  0
 11 36  1  0  0  0  0
 11 37  1  0  0  0  0
 12 15  1  0  0  0  0
 12 17  2  0  0  0  0
 13 38  1  0  0  0  0
 13 39  1  0  0  0  0
 14 16  1  0  0  0  0
 14 40  1  0  0  0  0
 14 41  1  0  0  0  0
 15 18  2  0  0  0  0
 16 19  1  0  0  0  0
 16 42  1  0  0  0  0
 16 43  1  0  0  0  0
 17 20  1  0  0  0  0
 17 44  1  0  0  0  0
 18 21  1  0  0  0  0
 18 45  1  0  0  0  0
 19 46  1  0  0  0  0
 19 47  1  0  0  0  0
 20 21  2  0  0  0  0
 20 48  1  0  0  0  0
 21 49  1  0  0  0  0
 22 23  1  0  0  0  0
 23 24  2  0  0  0  0
 23 25  1  0  0  0  0
 24 26  1  0  0  0  0
 24 51  1  0  0  0  0
 25 27  2  0  0  0  0
 25 52  1  0  0  0  0
 26 28  2  0  0  0  0
 26 53  1  0  0  0  0
 27 28  1  0  0  0  0
 27 54  1  0  0  0  0
 29 55  1  0  0  0  0
 29 56  1  0  0  0  0
 29 57  1  0  0  0  0
M  END
> <PUBCHEM_COMPOUND_CID>
164624434

> <PUBCHEM_COMPOUND_CANONICALIZED>
1

> <PUBCHEM_CACTVS_COMPLEXITY>
523

> <PUBCHEM_CACTVS_HBOND_ACCEPTOR>
5

> <PUBCHEM_CACTVS_HBOND_DONOR>
1

> <PUBCHEM_CACTVS_ROTATABLE_BOND>
7

> <PUBCHEM_CACTVS_SUBSKEYS>
AAADceB7OAAAAAAAAAAAAAAAAAAAAAAAAAA8aIEAAAAAAACxQAAAHgAQAAAADDzhmAYyBoPABACIAiFSEACCCAAkIAAIiIEODMgOJzKEtRuHOSjl1hGYqYe43KLOIAAAAAAIAABAAAAAABAAAAAAAAAAAA==

> <PUBCHEM_IUPAC_OPENEYE_NAME>
N-[4-[(4aR,10bR)-3,4a,5,10b-tetrahydro-2H-chromeno[4,3-b][1,4]oxazin-4-yl]butyl]-4-methoxy-benzamide

> <PUBCHEM_IUPAC_CAS_NAME>
N-[4-[(4aR,10bR)-3,4a,5,10b-tetrahydro-2H-[1]benzopyrano[4,3-b][1,4]oxazin-4-yl]butyl]-4-methoxybenzamide

> <PUBCHEM_IUPAC_NAME_MARKUP>
<I>N</I>-[4-[(4<I>a</I><I>R</I>,10<I>b</I><I>R</I>)-3,4<I>a</I>,5,10<I>b</I>-tetrahydro-2<I>H</I>-chromeno[4,3-b][1,4]oxazin-4-yl]butyl]-4-methoxybenzamide

> <PUBCHEM_IUPAC_NAME>
N-[4-[(4aR,10bR)-3,4a,5,10b-tetrahydro-2H-chromeno[4,3-b][1,4]oxazin-4-yl]butyl]-4-methoxybenzamide

> <PUBCHEM_IUPAC_SYSTEMATIC_NAME>
N-[4-[(4aR,10bR)-3,4a,5,10b-tetrahydro-2H-chromeno[4,3-b][1,4]oxazin-4-yl]butyl]-4-methoxy-benzamide

> <PUBCHEM_IUPAC_TRADITIONAL_NAME>
N-[4-[(4aR,10bR)-3,4a,5,10b-tetrahydro-2H-chromeno[4,3-b][1,4]oxazin-4-yl]butyl]-4-methoxy-benzamide

> <PUBCHEM_IUPAC_INCHI>
InChI=1S/C23H28N2O4/c1-27-18-10-8-17(9-11-18)23(26)24-12-4-5-13-25-14-15-28-22-19-6-2-3-7-21(19)29-16-20(22)25/h2-3,6-11,20,22H,4-5,12-16H2,1H3,(H,24,26)/t20-,22-/m1/s1

> <PUBCHEM_IUPAC_INCHIKEY>
CTBCYIMBXFMSFW-IFMALSPDSA-N

> <PUBCHEM_XLOGP3>
3.1

> <PUBCHEM_EXACT_MASS>
396.20490738

> <PUBCHEM_MOLECULAR_FORMULA>
C23H28N2O4

> <PUBCHEM_MOLECULAR_WEIGHT>
396.5

> <PUBCHEM_OPENEYE_CAN_SMILES>
COC1=CC=C(C=C1)C(=O)NCCCCN2CCOC3C2COC4=CC=CC=C34

> <PUBCHEM_OPENEYE_ISO_SMILES>
COC1=CC=C(C=C1)C(=O)NCCCCN2CCO[C@H]3[C@H]2COC4=CC=CC=C34

> <PUBCHEM_CACTVS_TPSA>
60

> <PUBCHEM_MONOISOTOPIC_WEIGHT>
396.20490738

> <PUBCHEM_TOTAL_CHARGE>
0

> <PUBCHEM_HEAVY_ATOM_COUNT>
29

> <PUBCHEM_ATOM_DEF_STEREO_COUNT>
2

> <PUBCHEM_ATOM_UDEF_STEREO_COUNT>
0

> <PUBCHEM_BOND_DEF_STEREO_COUNT>
0

> <PUBCHEM_BOND_UDEF_STEREO_COUNT>
0

> <PUBCHEM_ISOTOPIC_ATOM_COUNT>
0

> <PUBCHEM_COMPONENT_COUNT>
1

> <PUBCHEM_CACTVS_TAUTO_COUNT>
-1

> <PUBCHEM_COORDINATE_TYPE>
1
5
255

> <PUBCHEM_BONDANNOTATIONS>
12  15  8
12  17  8
15  18  8
17  20  8
18  21  8
20  21  8
23  24  8
23  25  8
24  26  8
25  27  8
26  28  8
27  28  8
7  30  6
8  31  5

$$$$
