127049863
  -OEChem-09292322052D

 59 62  0     0  0  0  0  0  0999 V2000
    2.0000   -5.9643    0.0000 F   0  0  0  0  0  0  0  0  0  0  0  0
   13.2793    2.7809    0.0000 F   0  0  0  0  0  0  0  0  0  0  0  0
    5.5443   -5.7690    0.0000 O   0  0  0  0  0  0  0  0  0  0  0  0
    9.3653    1.9560    0.0000 O   0  0  0  0  0  0  0  0  0  0  0  0
   12.9221    4.4757    0.0000 O   0  0  0  0  0  0  0  0  0  0  0  0
    6.4763   -1.3080    0.0000 N   0  0  0  0  0  0  0  0  0  0  0  0
    6.1279   -4.9643    0.0000 N   0  0  0  0  0  0  0  0  0  0  0  0
   11.2758    5.0138    0.0000 N   0  0  0  0  0  0  0  0  0  0  0  0
    5.8550   -3.2090    0.0000 C   0  0  0  0  0  0  0  0  0  0  0  0
    5.1871   -2.4647    0.0000 C   0  0  0  0  0  0  0  0  0  0  0  0
    6.8335   -3.0028    0.0000 C   0  0  0  0  0  0  0  0  0  0  0  0
    5.4978   -1.5142    0.0000 C   0  0  0  0  0  0  0  0  0  0  0  0
    7.1441   -2.0523    0.0000 C   0  0  0  0  0  0  0  0  0  0  0  0
    6.7870   -0.3575    0.0000 C   0  0  0  0  0  0  0  0  0  0  0  0
    5.5443   -4.1596    0.0000 C   0  0  0  0  0  0  0  0  0  0  0  0
    7.7654   -0.1513    0.0000 C   0  0  0  0  0  0  0  0  0  0  0  0
    4.5981   -4.4643    0.0000 C   0  0  0  0  0  0  0  0  0  0  0  0
    8.0761    0.7993    0.0000 C   0  0  0  0  0  0  0  0  0  0  0  0
    4.5981   -5.4643    0.0000 C   0  0  0  0  0  0  0  0  0  0  0  0
    3.7320   -3.9643    0.0000 C   0  0  0  0  0  0  0  0  0  0  0  0
    9.0546    1.0055    0.0000 C   0  0  0  0  0  0  0  0  0  0  0  0
    3.7320   -5.9643    0.0000 C   0  0  0  0  0  0  0  0  0  0  0  0
    2.8660   -4.4643    0.0000 C   0  0  0  0  0  0  0  0  0  0  0  0
    2.8660   -5.4643    0.0000 C   0  0  0  0  0  0  0  0  0  0  0  0
   10.3438    2.1622    0.0000 C   0  0  0  0  0  0  0  0  0  0  0  0
   10.6545    3.1127    0.0000 C   0  0  0  0  0  0  0  0  0  0  0  0
   11.0116    1.4179    0.0000 C   0  0  0  0  0  0  0  0  0  0  0  0
   11.6330    3.3190    0.0000 C   0  0  0  0  0  0  0  0  0  0  0  0
   11.9901    1.6241    0.0000 C   0  0  0  0  0  0  0  0  0  0  0  0
   12.3008    2.5746    0.0000 C   0  0  0  0  0  0  0  0  0  0  0  0
   11.9436    4.2695    0.0000 C   0  0  0  0  0  0  0  0  0  0  0  0
   11.5864    5.9643    0.0000 C   0  0  0  0  0  0  0  0  0  0  0  0
    6.2690   -3.6705    0.0000 H   0  0  0  0  0  0  0  0  0  0  0  0
    4.6402   -2.1727    0.0000 H   0  0  0  0  0  0  0  0  0  0  0  0
    4.8046   -2.9527    0.0000 H   0  0  0  0  0  0  0  0  0  0  0  0
    6.8540   -3.6225    0.0000 H   0  0  0  0  0  0  0  0  0  0  0  0
    7.4473   -3.0902    0.0000 H   0  0  0  0  0  0  0  0  0  0  0  0
    5.4772   -0.8946    0.0000 H   0  0  0  0  0  0  0  0  0  0  0  0
    4.8840   -1.4269    0.0000 H   0  0  0  0  0  0  0  0  0  0  0  0
    7.6910   -2.3443    0.0000 H   0  0  0  0  0  0  0  0  0  0  0  0
    7.5267   -1.5644    0.0000 H   0  0  0  0  0  0  0  0  0  0  0  0
    6.7664    0.2622    0.0000 H   0  0  0  0  0  0  0  0  0  0  0  0
    6.1731   -0.2701    0.0000 H   0  0  0  0  0  0  0  0  0  0  0  0
    7.7860   -0.7709    0.0000 H   0  0  0  0  0  0  0  0  0  0  0  0
    8.3793   -0.2386    0.0000 H   0  0  0  0  0  0  0  0  0  0  0  0
    8.0556    1.4189    0.0000 H   0  0  0  0  0  0  0  0  0  0  0  0
    7.4623    0.8866    0.0000 H   0  0  0  0  0  0  0  0  0  0  0  0
    3.7320   -3.3443    0.0000 H   0  0  0  0  0  0  0  0  0  0  0  0
    9.0752    0.3858    0.0000 H   0  0  0  0  0  0  0  0  0  0  0  0
    9.6684    0.9181    0.0000 H   0  0  0  0  0  0  0  0  0  0  0  0
    3.7320   -6.5843    0.0000 H   0  0  0  0  0  0  0  0  0  0  0  0
    2.3291   -4.1543    0.0000 H   0  0  0  0  0  0  0  0  0  0  0  0
   10.2404    3.5742    0.0000 H   0  0  0  0  0  0  0  0  0  0  0  0
   10.8190    0.8286    0.0000 H   0  0  0  0  0  0  0  0  0  0  0  0
   12.4042    1.1627    0.0000 H   0  0  0  0  0  0  0  0  0  0  0  0
   10.6691    4.8859    0.0000 H   0  0  0  0  0  0  0  0  0  0  0  0
   12.1758    5.7717    0.0000 H   0  0  0  0  0  0  0  0  0  0  0  0
   11.7790    6.5536    0.0000 H   0  0  0  0  0  0  0  0  0  0  0  0
   10.9971    6.1569    0.0000 H   0  0  0  0  0  0  0  0  0  0  0  0
  1 24  1  0  0  0  0
  2 30  1  0  0  0  0
  3  7  1  0  0  0  0
  3 19  1  0  0  0  0
  4 21  1  0  0  0  0
  4 25  1  0  0  0  0
  5 31  2  0  0  0  0
  6 12  1  0  0  0  0
  6 13  1  0  0  0  0
  6 14  1  0  0  0  0
  7 15  2  0  0  0  0
  8 31  1  0  0  0  0
  8 32  1  0  0  0  0
  8 56  1  0  0  0  0
  9 10  1  0  0  0  0
  9 11  1  0  0  0  0
  9 15  1  0  0  0  0
  9 33  1  0  0  0  0
 10 12  1  0  0  0  0
 10 34  1  0  0  0  0
 10 35  1  0  0  0  0
 11 13  1  0  0  0  0
 11 36  1  0  0  0  0
 11 37  1  0  0  0  0
 12 38  1  0  0  0  0
 12 39  1  0  0  0  0
 13 40  1  0  0  0  0
 13 41  1  0  0  0  0
 14 16  1  0  0  0  0
 14 42  1  0  0  0  0
 14 43  1  0  0  0  0
 15 17  1  0  0  0  0
 16 18  1  0  0  0  0
 16 44  1  0  0  0  0
 16 45  1  0  0  0  0
 17 19  2  0  0  0  0
 17 20  1  0  0  0  0
 18 21  1  0  0  0  0
 18 46  1  0  0  0  0
 18 47  1  0  0  0  0
 19 22  1  0  0  0  0
 20 23  2  0  0  0  0
 20 48  1  0  0  0  0
 21 49  1  0  0  0  0
 21 50  1  0  0  0  0
 22 24  2  0  0  0  0
 22 51  1  0  0  0  0
 23 24  1  0  0  0  0
 23 52  1  0  0  0  0
 25 26  2  0  0  0  0
 25 27  1  0  0  0  0
 26 28  1  0  0  0  0
 26 53  1  0  0  0  0
 27 29  2  0  0  0  0
 27 54  1  0  0  0  0
 28 30  2  0  0  0  0
 28 31  1  0  0  0  0
 29 30  1  0  0  0  0
 29 55  1  0  0  0  0
 32 57  1  0  0  0  0
 32 58  1  0  0  0  0
 32 59  1  0  0  0  0
M  END
> <PUBCHEM_COMPOUND_CID>
127049863

> <PUBCHEM_COMPOUND_CANONICALIZED>
1

> <PUBCHEM_CACTVS_COMPLEXITY>
605

> <PUBCHEM_CACTVS_HBOND_ACCEPTOR>
7

> <PUBCHEM_CACTVS_HBOND_DONOR>
1

> <PUBCHEM_CACTVS_ROTATABLE_BOND>
8

> <PUBCHEM_CACTVS_SUBSKEYS>
AAADceB7MYAAAAAAAAAAAAAAAAAAAWAAAAA8YIAAAAAAAFgB9AAAHwAUAAAADQzhng4yhtPQBACpA6VyUgCCCAAkIAAomKE+TNoMJrqEtZuGOajmwhmI6ce6yPCOAAABAAAIAAAAAAIAABAAAAAAAAAAAA==

> <PUBCHEM_IUPAC_OPENEYE_NAME>
2-fluoro-5-[4-[4-(6-fluoro-1,2-benzoxazol-3-yl)-1-piperidyl]butoxy]-N-methyl-benzamide

> <PUBCHEM_IUPAC_CAS_NAME>
2-fluoro-5-[4-[4-(6-fluoro-1,2-benzoxazol-3-yl)-1-piperidinyl]butoxy]-N-methylbenzamide

> <PUBCHEM_IUPAC_NAME_MARKUP>
2-fluoro-5-[4-[4-(6-fluoro-1,2-benzoxazol-3-yl)piperidin-1-yl]butoxy]-<I>N</I>-methylbenzamide

> <PUBCHEM_IUPAC_NAME>
2-fluoro-5-[4-[4-(6-fluoro-1,2-benzoxazol-3-yl)piperidin-1-yl]butoxy]-N-methylbenzamide

> <PUBCHEM_IUPAC_SYSTEMATIC_NAME>
2-fluoranyl-5-[4-[4-(6-fluoranyl-1,2-benzoxazol-3-yl)piperidin-1-yl]butoxy]-N-methyl-benzamide

> <PUBCHEM_IUPAC_TRADITIONAL_NAME>
2-fluoro-5-[4-[4-(6-fluoroindoxazen-3-yl)piperidino]butoxy]-N-methyl-benzamide

> <PUBCHEM_IUPAC_INCHI>
InChI=1S/C24H27F2N3O3/c1-27-24(30)20-15-18(5-7-21(20)26)31-13-3-2-10-29-11-8-16(9-12-29)23-19-6-4-17(25)14-22(19)32-28-23/h4-7,14-16H,2-3,8-13H2,1H3,(H,27,30)

> <PUBCHEM_IUPAC_INCHIKEY>
KHQGQEHXELFETD-UHFFFAOYSA-N

> <PUBCHEM_XLOGP3_AA>
4.2

> <PUBCHEM_EXACT_MASS>
443.20204806

> <PUBCHEM_MOLECULAR_FORMULA>
C24H27F2N3O3

> <PUBCHEM_MOLECULAR_WEIGHT>
443.5

> <PUBCHEM_OPENEYE_CAN_SMILES>
CNC(=O)C1=C(C=CC(=C1)OCCCCN2CCC(CC2)C3=NOC4=C3C=CC(=C4)F)F

> <PUBCHEM_OPENEYE_ISO_SMILES>
CNC(=O)C1=C(C=CC(=C1)OCCCCN2CCC(CC2)C3=NOC4=C3C=CC(=C4)F)F

> <PUBCHEM_CACTVS_TPSA>
67.6

> <PUBCHEM_MONOISOTOPIC_WEIGHT>
443.20204806

> <PUBCHEM_TOTAL_CHARGE>
0

> <PUBCHEM_HEAVY_ATOM_COUNT>
32

> <PUBCHEM_ATOM_DEF_STEREO_COUNT>
0

> <PUBCHEM_ATOM_UDEF_STEREO_COUNT>
0

> <PUBCHEM_BOND_DEF_STEREO_COUNT>
0

> <PUBCHEM_BOND_UDEF_STEREO_COUNT>
0

> <PUBCHEM_ISOTOPIC_ATOM_COUNT>
0

> <PUBCHEM_COMPONENT_COUNT>
1

> <PUBCHEM_CACTVS_TAUTO_COUNT>
-1

> <PUBCHEM_COORDINATE_TYPE>
1
5
255

> <PUBCHEM_BONDANNOTATIONS>
15  17  8
17  19  8
17  20  8
19  22  8
20  23  8
22  24  8
23  24  8
25  26  8
25  27  8
26  28  8
27  29  8
28  30  8
29  30  8
3  19  8
3  7  8
7  15  8

$$$$
