11849229
  -OEChem-09292322022D

 49 51  0     0  0  0  0  0  0999 V2000
    4.5981    2.7500    0.0000 O   0  0  0  0  0  0  0  0  0  0  0  0
    5.4641    0.2500    0.0000 N   0  0  0  0  0  0  0  0  0  0  0  0
    5.4641   -1.7500    0.0000 N   0  0  0  0  0  0  0  0  0  0  0  0
    6.3301   -3.2500    0.0000 N   0  0  0  0  0  0  0  0  0  0  0  0
    5.4641    3.2500    0.0000 N   0  0  0  0  0  0  0  0  0  0  0  0
    2.0000    2.2500    0.0000 N   0  0  0  0  0  0  0  0  0  0  0  0
    6.3301   -0.2500    0.0000 C   0  0  0  0  0  0  0  0  0  0  0  0
    4.5981   -0.2500    0.0000 C   0  0  0  0  0  0  0  0  0  0  0  0
    6.3301   -1.2500    0.0000 C   0  0  0  0  0  0  0  0  0  0  0  0
    4.5981   -1.2500    0.0000 C   0  0  0  0  0  0  0  0  0  0  0  0
    5.4641    1.2500    0.0000 C   0  0  0  0  0  0  0  0  0  0  0  0
    6.3301    1.7500    0.0000 C   0  0  0  0  0  0  0  0  0  0  0  0
    5.4641   -2.7500    0.0000 C   0  0  0  0  0  0  0  0  0  0  0  0
    6.3301    2.7500    0.0000 C   0  0  0  0  0  0  0  0  0  0  0  0
    4.5981   -3.2500    0.0000 C   0  0  0  0  0  0  0  0  0  0  0  0
    7.1962    3.2500    0.0000 C   0  0  0  0  0  0  0  0  0  0  0  0
    4.5981   -4.2500    0.0000 C   0  0  0  0  0  0  0  0  0  0  0  0
    6.3301   -4.2500    0.0000 C   0  0  0  0  0  0  0  0  0  0  0  0
    5.4641   -4.7500    0.0000 C   0  0  0  0  0  0  0  0  0  0  0  0
    8.0622    2.7500    0.0000 C   0  0  0  0  0  0  0  0  0  0  0  0
    7.1962    4.2500    0.0000 C   0  0  0  0  0  0  0  0  0  0  0  0
    8.9282    3.2500    0.0000 C   0  0  0  0  0  0  0  0  0  0  0  0
    8.0622    4.7500    0.0000 C   0  0  0  0  0  0  0  0  0  0  0  0
    8.9282    4.2500    0.0000 C   0  0  0  0  0  0  0  0  0  0  0  0
    3.7320    3.2500    0.0000 C   0  0  0  0  0  0  0  0  0  0  0  0
    2.8660    2.7500    0.0000 C   0  0  0  0  0  0  0  0  0  0  0  0
    6.9407   -0.3577    0.0000 H   0  0  0  0  0  0  0  0  0  0  0  0
    6.5422    0.3326    0.0000 H   0  0  0  0  0  0  0  0  0  0  0  0
    4.3860    0.3326    0.0000 H   0  0  0  0  0  0  0  0  0  0  0  0
    3.9875   -0.3577    0.0000 H   0  0  0  0  0  0  0  0  0  0  0  0
    6.5422   -1.8326    0.0000 H   0  0  0  0  0  0  0  0  0  0  0  0
    6.9407   -1.1423    0.0000 H   0  0  0  0  0  0  0  0  0  0  0  0
    3.9875   -1.1423    0.0000 H   0  0  0  0  0  0  0  0  0  0  0  0
    4.3860   -1.8326    0.0000 H   0  0  0  0  0  0  0  0  0  0  0  0
    5.2520    1.8326    0.0000 H   0  0  0  0  0  0  0  0  0  0  0  0
    4.8535    1.1423    0.0000 H   0  0  0  0  0  0  0  0  0  0  0  0
    6.5422    1.1674    0.0000 H   0  0  0  0  0  0  0  0  0  0  0  0
    6.9407    1.8577    0.0000 H   0  0  0  0  0  0  0  0  0  0  0  0
    4.0611   -2.9400    0.0000 H   0  0  0  0  0  0  0  0  0  0  0  0
    4.0611   -4.5600    0.0000 H   0  0  0  0  0  0  0  0  0  0  0  0
    6.8671   -4.5600    0.0000 H   0  0  0  0  0  0  0  0  0  0  0  0
    5.4641   -5.3700    0.0000 H   0  0  0  0  0  0  0  0  0  0  0  0
    8.0622    2.1300    0.0000 H   0  0  0  0  0  0  0  0  0  0  0  0
    6.6592    4.5600    0.0000 H   0  0  0  0  0  0  0  0  0  0  0  0
    9.4651    2.9400    0.0000 H   0  0  0  0  0  0  0  0  0  0  0  0
    8.0622    5.3700    0.0000 H   0  0  0  0  0  0  0  0  0  0  0  0
    9.4651    4.5600    0.0000 H   0  0  0  0  0  0  0  0  0  0  0  0
    4.1306    3.7250    0.0000 H   0  0  0  0  0  0  0  0  0  0  0  0
    3.3335    3.7250    0.0000 H   0  0  0  0  0  0  0  0  0  0  0  0
  1  5  1  0  0  0  0
  1 25  1  0  0  0  0
  2  7  1  0  0  0  0
  2  8  1  0  0  0  0
  2 11  1  0  0  0  0
  3  9  1  0  0  0  0
  3 10  1  0  0  0  0
  3 13  1  0  0  0  0
  4 13  1  0  0  0  0
  4 18  2  0  0  0  0
  5 14  2  0  0  0  0
  6 26  3  0  0  0  0
  7  9  1  0  0  0  0
  7 27  1  0  0  0  0
  7 28  1  0  0  0  0
  8 10  1  0  0  0  0
  8 29  1  0  0  0  0
  8 30  1  0  0  0  0
  9 31  1  0  0  0  0
  9 32  1  0  0  0  0
 10 33  1  0  0  0  0
 10 34  1  0  0  0  0
 11 12  1  0  0  0  0
 11 35  1  0  0  0  0
 11 36  1  0  0  0  0
 12 14  1  0  0  0  0
 12 37  1  0  0  0  0
 12 38  1  0  0  0  0
 13 15  2  0  0  0  0
 14 16  1  0  0  0  0
 15 17  1  0  0  0  0
 15 39  1  0  0  0  0
 16 20  2  0  0  0  0
 16 21  1  0  0  0  0
 17 19  2  0  0  0  0
 17 40  1  0  0  0  0
 18 19  1  0  0  0  0
 18 41  1  0  0  0  0
 19 42  1  0  0  0  0
 20 22  1  0  0  0  0
 20 43  1  0  0  0  0
 21 23  2  0  0  0  0
 21 44  1  0  0  0  0
 22 24  2  0  0  0  0
 22 45  1  0  0  0  0
 23 24  1  0  0  0  0
 23 46  1  0  0  0  0
 24 47  1  0  0  0  0
 25 26  1  0  0  0  0
 25 48  1  0  0  0  0
 25 49  1  0  0  0  0
M  END
> <PUBCHEM_COMPOUND_CID>
11849229

> <PUBCHEM_COMPOUND_CANONICALIZED>
1

> <PUBCHEM_CACTVS_COMPLEXITY>
486

> <PUBCHEM_CACTVS_HBOND_ACCEPTOR>
6

> <PUBCHEM_CACTVS_HBOND_DONOR>
0

> <PUBCHEM_CACTVS_ROTATABLE_BOND>
7

> <PUBCHEM_CACTVS_SUBSKEYS>
AAADceB7oAAAAAAAAAAAAAAAAAAAAAAAAAA8WIAAAAAAAAABwAAAHgAEAAAADAjhmgY9sJMYEACwBzJnZACCgCkxAiAJ2CA4ZJiIYOLAmZGUIAhogALIyCcQgIAOAAAAAAAAAAAAAAAAAAAAAAAAAAAAAA==

> <PUBCHEM_IUPAC_OPENEYE_NAME>
2-[(E)-[1-phenyl-3-[4-(2-pyridyl)piperazin-1-yl]propylidene]amino]oxyacetonitrile

> <PUBCHEM_IUPAC_CAS_NAME>
2-[(E)-[1-phenyl-3-[4-(2-pyridinyl)-1-piperazinyl]propylidene]amino]oxyacetonitrile

> <PUBCHEM_IUPAC_NAME_MARKUP>
2-[(<I>E</I>)-[1-phenyl-3-(4-pyridin-2-ylpiperazin-1-yl)propylidene]amino]oxyacetonitrile

> <PUBCHEM_IUPAC_NAME>
2-[(E)-[1-phenyl-3-(4-pyridin-2-ylpiperazin-1-yl)propylidene]amino]oxyacetonitrile

> <PUBCHEM_IUPAC_SYSTEMATIC_NAME>
2-[(E)-[1-phenyl-3-(4-pyridin-2-ylpiperazin-1-yl)propylidene]amino]oxyethanenitrile

> <PUBCHEM_IUPAC_TRADITIONAL_NAME>
2-[(E)-[1-phenyl-3-[4-(2-pyridyl)piperazino]propylidene]amino]oxyacetonitrile

> <PUBCHEM_IUPAC_INCHI>
InChI=1S/C20H23N5O/c21-10-17-26-23-19(18-6-2-1-3-7-18)9-12-24-13-15-25(16-14-24)20-8-4-5-11-22-20/h1-8,11H,9,12-17H2/b23-19+

> <PUBCHEM_IUPAC_INCHIKEY>
LWLGSWADZDNDOB-FCDQGJHFSA-N

> <PUBCHEM_XLOGP3_AA>
2.8

> <PUBCHEM_EXACT_MASS>
349.19026037

> <PUBCHEM_MOLECULAR_FORMULA>
C20H23N5O

> <PUBCHEM_MOLECULAR_WEIGHT>
349.4

> <PUBCHEM_OPENEYE_CAN_SMILES>
C1CN(CCN1CCC(=NOCC#N)C2=CC=CC=C2)C3=CC=CC=N3

> <PUBCHEM_OPENEYE_ISO_SMILES>
C1CN(CCN1CC/C(=N\OCC#N)/C2=CC=CC=C2)C3=CC=CC=N3

> <PUBCHEM_CACTVS_TPSA>
64.8

> <PUBCHEM_MONOISOTOPIC_WEIGHT>
349.19026037

> <PUBCHEM_TOTAL_CHARGE>
0

> <PUBCHEM_HEAVY_ATOM_COUNT>
26

> <PUBCHEM_ATOM_DEF_STEREO_COUNT>
0

> <PUBCHEM_ATOM_UDEF_STEREO_COUNT>
0

> <PUBCHEM_BOND_DEF_STEREO_COUNT>
1

> <PUBCHEM_BOND_UDEF_STEREO_COUNT>
0

> <PUBCHEM_ISOTOPIC_ATOM_COUNT>
0

> <PUBCHEM_COMPONENT_COUNT>
1

> <PUBCHEM_CACTVS_TAUTO_COUNT>
-1

> <PUBCHEM_COORDINATE_TYPE>
1
5
255

> <PUBCHEM_BONDANNOTATIONS>
13  15  8
15  17  8
16  20  8
16  21  8
17  19  8
18  19  8
20  22  8
21  23  8
22  24  8
23  24  8
4  13  8
4  18  8

$$$$
