126534991
  -OEChem-09292322372D

 60 64  0     1  0  0  0  0  0999 V2000
   10.1803    2.7681    0.0000 S   0  0  0  0  0  0  0  0  0  0  0  0
    2.0740    0.5544    0.0000 F   0  0  0  0  0  0  0  0  0  0  0  0
    2.0000   -0.8579    0.0000 F   0  0  0  0  0  0  0  0  0  0  0  0
    3.4863    0.4804    0.0000 F   0  0  0  0  0  0  0  0  0  0  0  0
    3.4634   -3.5772    0.0000 F   0  0  0  0  0  0  0  0  0  0  0  0
    4.6994    0.2271    0.0000 N   0  0  3  0  0  0  0  0  0  0  0  0
    7.1803    1.0361    0.0000 N   0  0  3  0  0  0  0  0  0  0  0  0
   11.7681    1.9591    0.0000 N   0  0  0  0  0  0  0  0  0  0  0  0
   11.7681    3.5772    0.0000 N   0  0  0  0  0  0  0  0  0  0  0  0
   12.7192    3.2681    0.0000 N   0  0  0  0  0  0  0  0  0  0  0  0
   14.4417    2.0871    0.0000 N   0  0  0  0  0  0  0  0  0  0  0  0
   14.2327    0.0980    0.0000 N   0  0  0  0  0  0  0  0  0  0  0  0
    5.6505    1.5361    0.0000 C   0  0  3  0  0  0  0  0  0  0  0  0
    5.6505    0.5361    0.0000 C   0  0  3  0  0  0  0  0  0  0  0  0
    6.5967    1.8408    0.0000 C   0  0  0  0  0  0  0  0  0  0  0  0
    4.6994    1.8451    0.0000 C   0  0  0  0  0  0  0  0  0  0  0  0
    6.5967    0.2314    0.0000 C   0  0  0  0  0  0  0  0  0  0  0  0
    4.1116    1.0361    0.0000 C   0  0  0  0  0  0  0  0  0  0  0  0
    8.1803    1.0361    0.0000 C   0  0  0  0  0  0  0  0  0  0  0  0
    4.3904   -0.7240    0.0000 C   0  0  0  0  0  0  0  0  0  0  0  0
    8.6803    1.9021    0.0000 C   0  0  0  0  0  0  0  0  0  0  0  0
    3.4123   -0.9319    0.0000 C   0  0  0  0  0  0  0  0  0  0  0  0
    5.0596   -1.4671    0.0000 C   0  0  0  0  0  0  0  0  0  0  0  0
    9.6803    1.9021    0.0000 C   0  0  0  0  0  0  0  0  0  0  0  0
    3.1033   -1.8830    0.0000 C   0  0  0  0  0  0  0  0  0  0  0  0
    2.7431   -0.1888    0.0000 C   0  0  0  0  0  0  0  0  0  0  0  0
    4.7505   -2.4182    0.0000 C   0  0  0  0  0  0  0  0  0  0  0  0
    3.7724   -2.6261    0.0000 C   0  0  0  0  0  0  0  0  0  0  0  0
   11.1803    2.7681    0.0000 C   0  0  0  0  0  0  0  0  0  0  0  0
   12.7192    2.2681    0.0000 C   0  0  0  0  0  0  0  0  0  0  0  0
   11.4591    1.0081    0.0000 C   0  0  0  0  0  0  0  0  0  0  0  0
   13.5282    1.6804    0.0000 C   0  0  0  0  0  0  0  0  0  0  0  0
   13.4237    0.6858    0.0000 C   0  0  0  0  0  0  0  0  0  0  0  0
   15.2507    1.4993    0.0000 C   0  0  0  0  0  0  0  0  0  0  0  0
   15.1462    0.5048    0.0000 C   0  0  0  0  0  0  0  0  0  0  0  0
    5.6513    2.1561    0.0000 H   0  0  0  0  0  0  0  0  0  0  0  0
    5.6513   -0.0839    0.0000 H   0  0  0  0  0  0  0  0  0  0  0  0
    7.1341    2.1500    0.0000 H   0  0  0  0  0  0  0  0  0  0  0  0
    6.3457    2.4077    0.0000 H   0  0  0  0  0  0  0  0  0  0  0  0
    4.9516    2.4115    0.0000 H   0  0  0  0  0  0  0  0  0  0  0  0
    4.1625    2.1551    0.0000 H   0  0  0  0  0  0  0  0  0  0  0  0
    6.3457   -0.3356    0.0000 H   0  0  0  0  0  0  0  0  0  0  0  0
    7.1341   -0.0779    0.0000 H   0  0  0  0  0  0  0  0  0  0  0  0
    3.6509    1.4510    0.0000 H   0  0  0  0  0  0  0  0  0  0  0  0
    3.6509    0.6212    0.0000 H   0  0  0  0  0  0  0  0  0  0  0  0
    8.0727    0.4255    0.0000 H   0  0  0  0  0  0  0  0  0  0  0  0
    8.7629    0.8240    0.0000 H   0  0  0  0  0  0  0  0  0  0  0  0
    8.7880    2.5127    0.0000 H   0  0  0  0  0  0  0  0  0  0  0  0
    8.0977    2.1142    0.0000 H   0  0  0  0  0  0  0  0  0  0  0  0
    5.6660   -1.3382    0.0000 H   0  0  0  0  0  0  0  0  0  0  0  0
    9.5727    1.2915    0.0000 H   0  0  0  0  0  0  0  0  0  0  0  0
   10.2629    1.6901    0.0000 H   0  0  0  0  0  0  0  0  0  0  0  0
    2.4968   -2.0119    0.0000 H   0  0  0  0  0  0  0  0  0  0  0  0
    5.1654   -2.8789    0.0000 H   0  0  0  0  0  0  0  0  0  0  0  0
   10.8694    1.1997    0.0000 H   0  0  0  0  0  0  0  0  0  0  0  0
   11.2675    0.4184    0.0000 H   0  0  0  0  0  0  0  0  0  0  0  0
   12.0487    0.8165    0.0000 H   0  0  0  0  0  0  0  0  0  0  0  0
   12.8573    0.4337    0.0000 H   0  0  0  0  0  0  0  0  0  0  0  0
   15.8171    1.7515    0.0000 H   0  0  0  0  0  0  0  0  0  0  0  0
   15.6478    0.1404    0.0000 H   0  0  0  0  0  0  0  0  0  0  0  0
  1 24  1  0  0  0  0
  1 29  1  0  0  0  0
  2 26  1  0  0  0  0
  3 26  1  0  0  0  0
  4 26  1  0  0  0  0
  5 28  1  0  0  0  0
  6 14  1  0  0  0  0
  6 18  1  0  0  0  0
  6 20  1  0  0  0  0
  7 15  1  0  0  0  0
  7 17  1  0  0  0  0
  7 19  1  0  0  0  0
  8 29  1  0  0  0  0
  8 30  1  0  0  0  0
  8 31  1  0  0  0  0
  9 10  1  0  0  0  0
  9 29  2  0  0  0  0
 10 30  2  0  0  0  0
 11 32  2  0  0  0  0
 11 34  1  0  0  0  0
 12 33  2  0  0  0  0
 12 35  1  0  0  0  0
 13 14  1  0  0  0  0
 13 15  1  0  0  0  0
 13 16  1  0  0  0  0
 13 36  1  0  0  0  0
 14 17  1  0  0  0  0
 14 37  1  0  0  0  0
 15 38  1  0  0  0  0
 15 39  1  0  0  0  0
 16 18  1  0  0  0  0
 16 40  1  0  0  0  0
 16 41  1  0  0  0  0
 17 42  1  0  0  0  0
 17 43  1  0  0  0  0
 18 44  1  0  0  0  0
 18 45  1  0  0  0  0
 19 21  1  0  0  0  0
 19 46  1  0  0  0  0
 19 47  1  0  0  0  0
 20 22  2  0  0  0  0
 20 23  1  0  0  0  0
 21 24  1  0  0  0  0
 21 48  1  0  0  0  0
 21 49  1  0  0  0  0
 22 25  1  0  0  0  0
 22 26  1  0  0  0  0
 23 27  2  0  0  0  0
 23 50  1  0  0  0  0
 24 51  1  0  0  0  0
 24 52  1  0  0  0  0
 25 28  2  0  0  0  0
 25 53  1  0  0  0  0
 27 28  1  0  0  0  0
 27 54  1  0  0  0  0
 30 32  1  0  0  0  0
 31 55  1  0  0  0  0
 31 56  1  0  0  0  0
 31 57  1  0  0  0  0
 32 33  1  0  0  0  0
 33 58  1  0  0  0  0
 34 35  2  0  0  0  0
 34 59  1  0  0  0  0
 35 60  1  0  0  0  0
M  END
> <PUBCHEM_COMPOUND_CID>
126534991

> <PUBCHEM_COMPOUND_CANONICALIZED>
1

> <PUBCHEM_CACTVS_COMPLEXITY>
703

> <PUBCHEM_CACTVS_HBOND_ACCEPTOR>
11

> <PUBCHEM_CACTVS_HBOND_DONOR>
0

> <PUBCHEM_CACTVS_ROTATABLE_BOND>
7

> <PUBCHEM_CACTVS_SUBSKEYS>
AAADceB7gcBAAAAAAAAAAAAAAAAAAWLFgAA8QAAAAAAWAAAB8AAAHQQIAAAADSjFXxy/0JcMEAiiAzZnZACS0C9xErAd2CA4dJiIaOLg2ZGUIAhgiALIyAcQgAAOAAAAAAACAAAAAAAAAAQAAAAAAAAAAA==

> <PUBCHEM_IUPAC_OPENEYE_NAME>
1-[4-fluoro-2-(trifluoromethyl)phenyl]-5-[3-[(4-methyl-5-pyrazin-2-yl-1,2,4-triazol-3-yl)sulfanyl]propyl]-2,3,3a,4,6,6a-hexahydropyrrolo[2,3-c]pyrrole

> <PUBCHEM_IUPAC_CAS_NAME>
1-[4-fluoro-2-(trifluoromethyl)phenyl]-5-[3-[[4-methyl-5-(2-pyrazinyl)-1,2,4-triazol-3-yl]thio]propyl]-2,3,3a,4,6,6a-hexahydropyrrolo[2,3-c]pyrrole

> <PUBCHEM_IUPAC_NAME_MARKUP>
1-[4-fluoro-2-(trifluoromethyl)phenyl]-5-[3-[(4-methyl-5-pyrazin-2-yl-1,2,4-triazol-3-yl)sulfanyl]propyl]-2,3,3<I>a</I>,4,6,6<I>a</I>-hexahydropyrrolo[2,3-c]pyrrole

> <PUBCHEM_IUPAC_NAME>
1-[4-fluoro-2-(trifluoromethyl)phenyl]-5-[3-[(4-methyl-5-pyrazin-2-yl-1,2,4-triazol-3-yl)sulfanyl]propyl]-2,3,3a,4,6,6a-hexahydropyrrolo[2,3-c]pyrrole

> <PUBCHEM_IUPAC_SYSTEMATIC_NAME>
1-[4-fluoranyl-2-(trifluoromethyl)phenyl]-5-[3-[(4-methyl-5-pyrazin-2-yl-1,2,4-triazol-3-yl)sulfanyl]propyl]-2,3,3a,4,6,6a-hexahydropyrrolo[2,3-c]pyrrole

> <PUBCHEM_IUPAC_TRADITIONAL_NAME>
1-[4-fluoro-2-(trifluoromethyl)phenyl]-5-[3-[(4-methyl-5-pyrazin-2-yl-1,2,4-triazol-3-yl)thio]propyl]-2,3,3a,4,6,6a-hexahydropyrrolo[2,3-c]pyrrole

> <PUBCHEM_IUPAC_INCHI>
InChI=1S/C23H25F4N7S/c1-32-21(18-12-28-6-7-29-18)30-31-22(32)35-10-2-8-33-13-15-5-9-34(20(15)14-33)19-4-3-16(24)11-17(19)23(25,26)27/h3-4,6-7,11-12,15,20H,2,5,8-10,13-14H2,1H3

> <PUBCHEM_IUPAC_INCHIKEY>
NNIDXNUKZKKKGS-UHFFFAOYSA-N

> <PUBCHEM_XLOGP3_AA>
3.3

> <PUBCHEM_EXACT_MASS>
507.18282765

> <PUBCHEM_MOLECULAR_FORMULA>
C23H25F4N7S

> <PUBCHEM_MOLECULAR_WEIGHT>
507.6

> <PUBCHEM_OPENEYE_CAN_SMILES>
CN1C(=NN=C1SCCCN2CC3CCN(C3C2)C4=C(C=C(C=C4)F)C(F)(F)F)C5=NC=CN=C5

> <PUBCHEM_OPENEYE_ISO_SMILES>
CN1C(=NN=C1SCCCN2CC3CCN(C3C2)C4=C(C=C(C=C4)F)C(F)(F)F)C5=NC=CN=C5

> <PUBCHEM_CACTVS_TPSA>
88.3

> <PUBCHEM_MONOISOTOPIC_WEIGHT>
507.18282765

> <PUBCHEM_TOTAL_CHARGE>
0

> <PUBCHEM_HEAVY_ATOM_COUNT>
35

> <PUBCHEM_ATOM_DEF_STEREO_COUNT>
0

> <PUBCHEM_ATOM_UDEF_STEREO_COUNT>
2

> <PUBCHEM_BOND_DEF_STEREO_COUNT>
0

> <PUBCHEM_BOND_UDEF_STEREO_COUNT>
0

> <PUBCHEM_ISOTOPIC_ATOM_COUNT>
0

> <PUBCHEM_COMPONENT_COUNT>
1

> <PUBCHEM_CACTVS_TAUTO_COUNT>
-1

> <PUBCHEM_COORDINATE_TYPE>
1
5
255

> <PUBCHEM_BONDANNOTATIONS>
10  30  8
11  32  8
11  34  8
12  33  8
12  35  8
13  16  3
14  17  3
20  22  8
20  23  8
22  25  8
23  27  8
25  28  8
27  28  8
32  33  8
34  35  8
8  29  8
8  30  8
9  10  8
9  29  8

$$$$
