11527195
  -OEChem-09292322492D

 69 74  0     1  0  0  0  0  0999 V2000
    5.4300   -5.7697    0.0000 Br  0  0  0  0  0  0  0  0  0  0  0  0
    5.2062    1.3069    0.0000 S   0  0  0  0  0  0  0  0  0  0  0  0
    3.4887   -6.7415    0.0000 O   0  0  0  0  0  0  0  0  0  0  0  0
    5.2062   -2.1572    0.0000 N   0  0  3  0  0  0  0  0  0  0  0  0
    2.0949   -5.9368    0.0000 N   0  0  0  0  0  0  0  0  0  0  0  0
    6.7008    2.2774    0.0000 N   0  0  0  0  0  0  0  0  0  0  0  0
    5.2995    3.0865    0.0000 N   0  0  0  0  0  0  0  0  0  0  0  0
    6.0426    3.7556    0.0000 N   0  0  0  0  0  0  0  0  0  0  0  0
    8.9651    6.0977    0.0000 N   0  0  0  0  0  0  0  0  0  0  0  0
    5.7062   -1.2912    0.0000 C   0  0  3  0  0  0  0  0  0  0  0  0
    5.7598   -2.9668    0.0000 C   0  0  0  0  0  0  0  0  0  0  0  0
    4.2283   -2.0826    0.0000 C   0  0  0  0  0  0  0  0  0  0  0  0
    5.4745   -3.9052    0.0000 C   0  0  0  0  0  0  0  0  0  0  0  0
    3.5583   -2.7989    0.0000 C   0  0  0  0  0  0  0  0  0  0  0  0
    4.5640   -4.2697    0.0000 C   0  0  0  0  0  0  0  0  0  0  0  0
    3.6979   -3.7697    0.0000 C   0  0  0  0  0  0  0  0  0  0  0  0
    5.2062   -0.4252    0.0000 C   0  0  0  0  0  0  0  0  0  0  0  0
    6.7062   -1.2912    0.0000 C   0  0  0  0  0  0  0  0  0  0  0  0
    4.5640   -5.2697    0.0000 C   0  0  0  0  0  0  0  0  0  0  0  0
    2.8319   -4.2697    0.0000 C   0  0  0  0  0  0  0  0  0  0  0  0
    5.7062    0.4409    0.0000 C   0  0  0  0  0  0  0  0  0  0  0  0
    3.6979   -5.7697    0.0000 C   0  0  0  0  0  0  0  0  0  0  0  0
    2.8319   -5.2697    0.0000 C   0  0  0  0  0  0  0  0  0  0  0  0
    2.5000   -6.8445    0.0000 C   0  0  0  0  0  0  0  0  0  0  0  0
    5.7062    2.1729    0.0000 C   0  0  0  0  0  0  0  0  0  0  0  0
    2.0000   -7.7106    0.0000 C   0  0  0  0  0  0  0  0  0  0  0  0
    6.9087    3.2556    0.0000 C   0  0  0  0  0  0  0  0  0  0  0  0
    7.8222    3.6623    0.0000 C   0  0  0  0  0  0  0  0  0  0  0  0
    7.3699    1.5343    0.0000 C   0  0  0  0  0  0  0  0  0  0  0  0
    7.9267    4.6569    0.0000 C   0  0  0  0  0  0  0  0  0  0  0  0
    8.8403    5.0636    0.0000 C   0  0  0  0  0  0  0  0  0  0  0  0
    8.6312    3.0746    0.0000 C   0  0  0  0  0  0  0  0  0  0  0  0
    7.0747    5.2560    0.0000 C   0  0  0  0  0  0  0  0  0  0  0  0
    9.6493    4.4758    0.0000 C   0  0  0  0  0  0  0  0  0  0  0  0
    9.5448    3.4813    0.0000 C   0  0  0  0  0  0  0  0  0  0  0  0
    7.1756    6.2928    0.0000 C   0  0  0  0  0  0  0  0  0  0  0  0
    8.1272    6.7164    0.0000 C   0  0  0  0  0  0  0  0  0  0  0  0
    8.2355    7.7106    0.0000 C   0  0  0  0  0  0  0  0  0  0  0  0
    6.0162   -1.8281    0.0000 H   0  0  0  0  0  0  0  0  0  0  0  0
    6.2977   -3.2751    0.0000 H   0  0  0  0  0  0  0  0  0  0  0  0
    6.1805   -2.5114    0.0000 H   0  0  0  0  0  0  0  0  0  0  0  0
    4.4124   -1.4906    0.0000 H   0  0  0  0  0  0  0  0  0  0  0  0
    3.6923   -1.7709    0.0000 H   0  0  0  0  0  0  0  0  0  0  0  0
    5.5705   -4.5177    0.0000 H   0  0  0  0  0  0  0  0  0  0  0  0
    6.0930   -3.9485    0.0000 H   0  0  0  0  0  0  0  0  0  0  0  0
    3.2116   -2.2849    0.0000 H   0  0  0  0  0  0  0  0  0  0  0  0
    2.9798   -3.0220    0.0000 H   0  0  0  0  0  0  0  0  0  0  0  0
    4.7313   -0.0266    0.0000 H   0  0  0  0  0  0  0  0  0  0  0  0
    4.7313   -0.8237    0.0000 H   0  0  0  0  0  0  0  0  0  0  0  0
    6.7062   -1.9112    0.0000 H   0  0  0  0  0  0  0  0  0  0  0  0
    7.3262   -1.2912    0.0000 H   0  0  0  0  0  0  0  0  0  0  0  0
    6.7062   -0.6712    0.0000 H   0  0  0  0  0  0  0  0  0  0  0  0
    2.2950   -3.9597    0.0000 H   0  0  0  0  0  0  0  0  0  0  0  0
    6.1812    0.0423    0.0000 H   0  0  0  0  0  0  0  0  0  0  0  0
    6.1812    0.8394    0.0000 H   0  0  0  0  0  0  0  0  0  0  0  0
    1.4631   -7.4006    0.0000 H   0  0  0  0  0  0  0  0  0  0  0  0
    1.6900   -8.2475    0.0000 H   0  0  0  0  0  0  0  0  0  0  0  0
    2.5369   -8.0206    0.0000 H   0  0  0  0  0  0  0  0  0  0  0  0
    6.9091    1.1194    0.0000 H   0  0  0  0  0  0  0  0  0  0  0  0
    7.7848    1.0736    0.0000 H   0  0  0  0  0  0  0  0  0  0  0  0
    7.8306    1.9492    0.0000 H   0  0  0  0  0  0  0  0  0  0  0  0
    8.5664    2.4580    0.0000 H   0  0  0  0  0  0  0  0  0  0  0  0
    6.5113    4.9973    0.0000 H   0  0  0  0  0  0  0  0  0  0  0  0
   10.2157    4.7280    0.0000 H   0  0  0  0  0  0  0  0  0  0  0  0
   10.0464    3.1169    0.0000 H   0  0  0  0  0  0  0  0  0  0  0  0
    6.6726    6.6553    0.0000 H   0  0  0  0  0  0  0  0  0  0  0  0
    8.8519    7.6434    0.0000 H   0  0  0  0  0  0  0  0  0  0  0  0
    8.3027    8.3269    0.0000 H   0  0  0  0  0  0  0  0  0  0  0  0
    7.6192    7.7778    0.0000 H   0  0  0  0  0  0  0  0  0  0  0  0
  1 19  1  0  0  0  0
  2 21  1  0  0  0  0
  2 25  1  0  0  0  0
  3 22  1  0  0  0  0
  3 24  1  0  0  0  0
  4 10  1  0  0  0  0
  4 11  1  0  0  0  0
  4 12  1  0  0  0  0
  5 23  1  0  0  0  0
  5 24  2  0  0  0  0
  6 25  1  0  0  0  0
  6 27  1  0  0  0  0
  6 29  1  0  0  0  0
  7  8  1  0  0  0  0
  7 25  2  0  0  0  0
  8 27  2  0  0  0  0
  9 31  1  0  0  0  0
  9 37  2  0  0  0  0
 10 17  1  0  0  0  0
 10 18  1  0  0  0  0
 10 39  1  0  0  0  0
 11 13  1  0  0  0  0
 11 40  1  0  0  0  0
 11 41  1  0  0  0  0
 12 14  1  0  0  0  0
 12 42  1  0  0  0  0
 12 43  1  0  0  0  0
 13 15  1  0  0  0  0
 13 44  1  0  0  0  0
 13 45  1  0  0  0  0
 14 16  1  0  0  0  0
 14 46  1  0  0  0  0
 14 47  1  0  0  0  0
 15 16  1  0  0  0  0
 15 19  2  0  0  0  0
 16 20  2  0  0  0  0
 17 21  1  0  0  0  0
 17 48  1  0  0  0  0
 17 49  1  0  0  0  0
 18 50  1  0  0  0  0
 18 51  1  0  0  0  0
 18 52  1  0  0  0  0
 19 22  1  0  0  0  0
 20 23  1  0  0  0  0
 20 53  1  0  0  0  0
 21 54  1  0  0  0  0
 21 55  1  0  0  0  0
 22 23  2  0  0  0  0
 24 26  1  0  0  0  0
 26 56  1  0  0  0  0
 26 57  1  0  0  0  0
 26 58  1  0  0  0  0
 27 28  1  0  0  0  0
 28 30  2  0  0  0  0
 28 32  1  0  0  0  0
 29 59  1  0  0  0  0
 29 60  1  0  0  0  0
 29 61  1  0  0  0  0
 30 31  1  0  0  0  0
 30 33  1  0  0  0  0
 31 34  2  0  0  0  0
 32 35  2  0  0  0  0
 32 62  1  0  0  0  0
 33 36  2  0  0  0  0
 33 63  1  0  0  0  0
 34 35  1  0  0  0  0
 34 64  1  0  0  0  0
 35 65  1  0  0  0  0
 36 37  1  0  0  0  0
 36 66  1  0  0  0  0
 37 38  1  0  0  0  0
 38 67  1  0  0  0  0
 38 68  1  0  0  0  0
 38 69  1  0  0  0  0
M  END
> <PUBCHEM_COMPOUND_CID>
11527195

> <PUBCHEM_COMPOUND_CANONICALIZED>
1

> <PUBCHEM_CACTVS_COMPLEXITY>
796

> <PUBCHEM_CACTVS_HBOND_ACCEPTOR>
7

> <PUBCHEM_CACTVS_HBOND_DONOR>
0

> <PUBCHEM_CACTVS_ROTATABLE_BOND>
6

> <PUBCHEM_CACTVS_SUBSKEYS>
AAADceB7oABAEAAAAAAAAAAAAAAAAWLAAAA8YIAABYAAAFix/gAAHgRIAAABrCzF3wSz1vcMFEiqA6dydASS2CtvYrQd2CG9bPiuLvLkvbuPOSjkzBPY65eY2fKOqAABUAESlABQAAKgAiUoAAAAAAAAAA==

> <PUBCHEM_IUPAC_OPENEYE_NAME>
10-bromo-2-methyl-7-[1-methyl-3-[[4-methyl-5-(2-methyl-5-quinolyl)-1,2,4-triazol-3-yl]sulfanyl]propyl]-5,6,8,9-tetrahydrooxazolo[4,5-h][3]benzazepine

> <PUBCHEM_IUPAC_CAS_NAME>
10-bromo-2-methyl-7-[4-[[4-methyl-5-(2-methyl-5-quinolinyl)-1,2,4-triazol-3-yl]thio]butan-2-yl]-5,6,8,9-tetrahydrooxazolo[4,5-h][3]benzazepine

> <PUBCHEM_IUPAC_NAME_MARKUP>
10-bromo-2-methyl-7-[4-[[4-methyl-5-(2-methylquinolin-5-yl)-1,2,4-triazol-3-yl]sulfanyl]butan-2-yl]-5,6,8,9-tetrahydro-[1,3]oxazolo[4,5-h][3]benzazepine

> <PUBCHEM_IUPAC_NAME>
10-bromo-2-methyl-7-[4-[[4-methyl-5-(2-methylquinolin-5-yl)-1,2,4-triazol-3-yl]sulfanyl]butan-2-yl]-5,6,8,9-tetrahydro-[1,3]oxazolo[4,5-h][3]benzazepine

> <PUBCHEM_IUPAC_SYSTEMATIC_NAME>
10-bromanyl-2-methyl-7-[4-[[4-methyl-5-(2-methylquinolin-5-yl)-1,2,4-triazol-3-yl]sulfanyl]butan-2-yl]-5,6,8,9-tetrahydro-[1,3]oxazolo[4,5-h][3]benzazepine

> <PUBCHEM_IUPAC_TRADITIONAL_NAME>
10-bromo-2-methyl-7-[1-methyl-3-[[4-methyl-5-(2-methyl-5-quinolyl)-1,2,4-triazol-3-yl]thio]propyl]-5,6,8,9-tetrahydrooxazolo[4,5-h][3]benzazepine

> <PUBCHEM_IUPAC_INCHI>
InChI=1S/C29H31BrN6OS/c1-17-8-9-22-23(6-5-7-24(22)31-17)28-33-34-29(35(28)4)38-15-12-18(2)36-13-10-20-16-25-27(37-19(3)32-25)26(30)21(20)11-14-36/h5-9,16,18H,10-15H2,1-4H3

> <PUBCHEM_IUPAC_INCHIKEY>
DJHAFQLSNXBKIX-UHFFFAOYSA-N

> <PUBCHEM_XLOGP3_AA>
6.4

> <PUBCHEM_EXACT_MASS>
590.14634

> <PUBCHEM_MOLECULAR_FORMULA>
C29H31BrN6OS

> <PUBCHEM_MOLECULAR_WEIGHT>
591.6

> <PUBCHEM_OPENEYE_CAN_SMILES>
CC1=NC2=CC=CC(=C2C=C1)C3=NN=C(N3C)SCCC(C)N4CCC5=CC6=C(C(=C5CC4)Br)OC(=N6)C

> <PUBCHEM_OPENEYE_ISO_SMILES>
CC1=NC2=CC=CC(=C2C=C1)C3=NN=C(N3C)SCCC(C)N4CCC5=CC6=C(C(=C5CC4)Br)OC(=N6)C

> <PUBCHEM_CACTVS_TPSA>
98.2

> <PUBCHEM_MONOISOTOPIC_WEIGHT>
590.14634

> <PUBCHEM_TOTAL_CHARGE>
0

> <PUBCHEM_HEAVY_ATOM_COUNT>
38

> <PUBCHEM_ATOM_DEF_STEREO_COUNT>
0

> <PUBCHEM_ATOM_UDEF_STEREO_COUNT>
1

> <PUBCHEM_BOND_DEF_STEREO_COUNT>
0

> <PUBCHEM_BOND_UDEF_STEREO_COUNT>
0

> <PUBCHEM_ISOTOPIC_ATOM_COUNT>
0

> <PUBCHEM_COMPONENT_COUNT>
1

> <PUBCHEM_CACTVS_TAUTO_COUNT>
-1

> <PUBCHEM_COORDINATE_TYPE>
1
5
255

> <PUBCHEM_BONDANNOTATIONS>
10  18  3
15  16  8
15  19  8
16  20  8
19  22  8
20  23  8
22  23  8
28  30  8
28  32  8
3  22  8
3  24  8
30  31  8
30  33  8
31  34  8
32  35  8
33  36  8
34  35  8
36  37  8
5  23  8
5  24  8
6  25  8
6  27  8
7  25  8
7  8  8
8  27  8
9  31  8
9  37  8

$$$$
