44371932
  -OEChem-09292322182D

 44 47  0     0  0  0  0  0  0999 V2000
   11.8385    2.5804    0.0000 Cl  0  0  0  0  0  0  0  0  0  0  0  0
    2.0000   -3.1184    0.0000 O   0  0  0  0  0  0  0  0  0  0  0  0
    5.9674    1.3430    0.0000 N   0  0  0  0  0  0  0  0  0  0  0  0
    7.9244    1.7555    0.0000 N   0  0  0  0  0  0  0  0  0  0  0  0
    3.7320   -1.1184    0.0000 N   0  0  0  0  0  0  0  0  0  0  0  0
    4.6783   -1.4232    0.0000 N   0  0  0  0  0  0  0  0  0  0  0  0
    6.2781    2.2936    0.0000 C   0  0  0  0  0  0  0  0  0  0  0  0
    6.6353    0.5987    0.0000 C   0  0  0  0  0  0  0  0  0  0  0  0
    7.2566    2.4998    0.0000 C   0  0  0  0  0  0  0  0  0  0  0  0
    7.6138    0.8050    0.0000 C   0  0  0  0  0  0  0  0  0  0  0  0
    4.9889    1.1368    0.0000 C   0  0  0  0  0  0  0  0  0  0  0  0
    4.6783    0.1863    0.0000 C   0  0  0  0  0  0  0  0  0  0  0  0
    8.9030    1.9617    0.0000 C   0  0  0  0  0  0  0  0  0  0  0  0
    3.7320   -0.1184    0.0000 C   0  0  0  0  0  0  0  0  0  0  0  0
    5.2619   -0.6184    0.0000 C   0  0  0  0  0  0  0  0  0  0  0  0
    9.2136    2.9122    0.0000 C   0  0  0  0  0  0  0  0  0  0  0  0
    9.5708    1.2174    0.0000 C   0  0  0  0  0  0  0  0  0  0  0  0
    2.8660    0.3816    0.0000 C   0  0  0  0  0  0  0  0  0  0  0  0
    2.8660   -1.6184    0.0000 C   0  0  0  0  0  0  0  0  0  0  0  0
   10.1921    3.1184    0.0000 C   0  0  0  0  0  0  0  0  0  0  0  0
   10.5493    1.4236    0.0000 C   0  0  0  0  0  0  0  0  0  0  0  0
    2.0000   -0.1184    0.0000 C   0  0  0  0  0  0  0  0  0  0  0  0
    2.0000   -1.1184    0.0000 C   0  0  0  0  0  0  0  0  0  0  0  0
   10.8600    2.3741    0.0000 C   0  0  0  0  0  0  0  0  0  0  0  0
    2.8660   -2.6184    0.0000 C   0  0  0  0  0  0  0  0  0  0  0  0
    6.2575    2.9132    0.0000 H   0  0  0  0  0  0  0  0  0  0  0  0
    5.6643    2.3809    0.0000 H   0  0  0  0  0  0  0  0  0  0  0  0
    6.1089    0.2711    0.0000 H   0  0  0  0  0  0  0  0  0  0  0  0
    6.8665    0.0235    0.0000 H   0  0  0  0  0  0  0  0  0  0  0  0
    7.7830    2.8274    0.0000 H   0  0  0  0  0  0  0  0  0  0  0  0
    7.0254    3.0750    0.0000 H   0  0  0  0  0  0  0  0  0  0  0  0
    7.6344    0.1853    0.0000 H   0  0  0  0  0  0  0  0  0  0  0  0
    8.2276    0.7176    0.0000 H   0  0  0  0  0  0  0  0  0  0  0  0
    4.9684    1.7565    0.0000 H   0  0  0  0  0  0  0  0  0  0  0  0
    4.3751    1.2242    0.0000 H   0  0  0  0  0  0  0  0  0  0  0  0
    5.8819   -0.6184    0.0000 H   0  0  0  0  0  0  0  0  0  0  0  0
    8.7996    3.3737    0.0000 H   0  0  0  0  0  0  0  0  0  0  0  0
    9.3782    0.6281    0.0000 H   0  0  0  0  0  0  0  0  0  0  0  0
    2.8660    1.0016    0.0000 H   0  0  0  0  0  0  0  0  0  0  0  0
   10.3847    3.7078    0.0000 H   0  0  0  0  0  0  0  0  0  0  0  0
   10.9634    0.9621    0.0000 H   0  0  0  0  0  0  0  0  0  0  0  0
    1.4631    0.1916    0.0000 H   0  0  0  0  0  0  0  0  0  0  0  0
    1.4631   -1.4284    0.0000 H   0  0  0  0  0  0  0  0  0  0  0  0
    3.4030   -2.9284    0.0000 H   0  0  0  0  0  0  0  0  0  0  0  0
  1 24  1  0  0  0  0
  2 25  2  0  0  0  0
  3  7  1  0  0  0  0
  3  8  1  0  0  0  0
  3 11  1  0  0  0  0
  4  9  1  0  0  0  0
  4 10  1  0  0  0  0
  4 13  1  0  0  0  0
  5  6  1  0  0  0  0
  5 14  1  0  0  0  0
  5 19  1  0  0  0  0
  6 15  2  0  0  0  0
  7  9  1  0  0  0  0
  7 26  1  0  0  0  0
  7 27  1  0  0  0  0
  8 10  1  0  0  0  0
  8 28  1  0  0  0  0
  8 29  1  0  0  0  0
  9 30  1  0  0  0  0
  9 31  1  0  0  0  0
 10 32  1  0  0  0  0
 10 33  1  0  0  0  0
 11 12  1  0  0  0  0
 11 34  1  0  0  0  0
 11 35  1  0  0  0  0
 12 14  2  0  0  0  0
 12 15  1  0  0  0  0
 13 16  2  0  0  0  0
 13 17  1  0  0  0  0
 14 18  1  0  0  0  0
 15 36  1  0  0  0  0
 16 20  1  0  0  0  0
 16 37  1  0  0  0  0
 17 21  2  0  0  0  0
 17 38  1  0  0  0  0
 18 22  2  0  0  0  0
 18 39  1  0  0  0  0
 19 23  2  0  0  0  0
 19 25  1  0  0  0  0
 20 24  2  0  0  0  0
 20 40  1  0  0  0  0
 21 24  1  0  0  0  0
 21 41  1  0  0  0  0
 22 23  1  0  0  0  0
 22 42  1  0  0  0  0
 23 43  1  0  0  0  0
 25 44  1  0  0  0  0
M  END
> <PUBCHEM_COMPOUND_CID>
44371932

> <PUBCHEM_COMPOUND_CANONICALIZED>
1

> <PUBCHEM_CACTVS_COMPLEXITY>
449

> <PUBCHEM_CACTVS_HBOND_ACCEPTOR>
4

> <PUBCHEM_CACTVS_HBOND_DONOR>
0

> <PUBCHEM_CACTVS_ROTATABLE_BOND>
4

> <PUBCHEM_CACTVS_SUBSKEYS>
AAADceB7oAAEAAAAAAAAAAAAAAAAAWAAAAA8WIAAAAAAAFgB8AAAHgIIAAAADArhniY8wLMIEACqAzx3xACShCAnhyAYmCG4ZtgIYPLB1/GUpQhgiADIyYcYiMCMAABAAAAAAAAAAIAAAAAAAAAAAAAAAA==

> <PUBCHEM_IUPAC_OPENEYE_NAME>
3-[[4-(4-chlorophenyl)piperazin-1-yl]methyl]pyrazolo[1,5-a]pyridine-7-carbaldehyde

> <PUBCHEM_IUPAC_CAS_NAME>
3-[[4-(4-chlorophenyl)-1-piperazinyl]methyl]-7-pyrazolo[1,5-a]pyridinecarboxaldehyde

> <PUBCHEM_IUPAC_NAME_MARKUP>
3-[[4-(4-chlorophenyl)piperazin-1-yl]methyl]pyrazolo[1,5-a]pyridine-7-carbaldehyde

> <PUBCHEM_IUPAC_NAME>
3-[[4-(4-chlorophenyl)piperazin-1-yl]methyl]pyrazolo[1,5-a]pyridine-7-carbaldehyde

> <PUBCHEM_IUPAC_SYSTEMATIC_NAME>
3-[[4-(4-chlorophenyl)piperazin-1-yl]methyl]pyrazolo[1,5-a]pyridine-7-carbaldehyde

> <PUBCHEM_IUPAC_TRADITIONAL_NAME>
3-[[4-(4-chlorophenyl)piperazino]methyl]pyrazolo[1,5-a]pyridine-7-carbaldehyde

> <PUBCHEM_IUPAC_INCHI>
InChI=1S/C19H19ClN4O/c20-16-4-6-17(7-5-16)23-10-8-22(9-11-23)13-15-12-21-24-18(14-25)2-1-3-19(15)24/h1-7,12,14H,8-11,13H2

> <PUBCHEM_IUPAC_INCHIKEY>
JQJZAUBSLUYDAA-UHFFFAOYSA-N

> <PUBCHEM_XLOGP3_AA>
2.9

> <PUBCHEM_EXACT_MASS>
354.1247389

> <PUBCHEM_MOLECULAR_FORMULA>
C19H19ClN4O

> <PUBCHEM_MOLECULAR_WEIGHT>
354.8

> <PUBCHEM_OPENEYE_CAN_SMILES>
C1CN(CCN1CC2=C3C=CC=C(N3N=C2)C=O)C4=CC=C(C=C4)Cl

> <PUBCHEM_OPENEYE_ISO_SMILES>
C1CN(CCN1CC2=C3C=CC=C(N3N=C2)C=O)C4=CC=C(C=C4)Cl

> <PUBCHEM_CACTVS_TPSA>
40.8

> <PUBCHEM_MONOISOTOPIC_WEIGHT>
354.1247389

> <PUBCHEM_TOTAL_CHARGE>
0

> <PUBCHEM_HEAVY_ATOM_COUNT>
25

> <PUBCHEM_ATOM_DEF_STEREO_COUNT>
0

> <PUBCHEM_ATOM_UDEF_STEREO_COUNT>
0

> <PUBCHEM_BOND_DEF_STEREO_COUNT>
0

> <PUBCHEM_BOND_UDEF_STEREO_COUNT>
0

> <PUBCHEM_ISOTOPIC_ATOM_COUNT>
0

> <PUBCHEM_COMPONENT_COUNT>
1

> <PUBCHEM_CACTVS_TAUTO_COUNT>
-1

> <PUBCHEM_COORDINATE_TYPE>
1
5
255

> <PUBCHEM_BONDANNOTATIONS>
12  14  8
12  15  8
13  16  8
13  17  8
14  18  8
16  20  8
17  21  8
18  22  8
19  23  8
20  24  8
21  24  8
22  23  8
5  14  8
5  19  8
5  6  8
6  15  8

$$$$
