25156416
  -OEChem-09292322502D

 61 64  0     1  0  0  0  0  0999 V2000
    8.9962   -1.7500    0.0000 O   0  0  0  0  0  0  0  0  0  0  0  0
   13.3263    2.7500    0.0000 O   0  0  0  0  0  0  0  0  0  0  0  0
    5.5321   -1.7500    0.0000 N   0  0  3  0  0  0  0  0  0  0  0  0
    5.5321   -0.7500    0.0000 C   0  0  0  0  0  0  0  0  0  0  0  0
    4.6660   -2.2500    0.0000 C   0  0  0  0  0  0  0  0  0  0  0  0
    4.6660   -0.2500    0.0000 C   0  0  0  0  0  0  0  0  0  0  0  0
    6.3981   -2.2500    0.0000 C   0  0  0  0  0  0  0  0  0  0  0  0
    3.8000   -1.7500    0.0000 C   0  0  0  0  0  0  0  0  0  0  0  0
    3.8000   -0.7500    0.0000 C   0  0  0  0  0  0  0  0  0  0  0  0
    7.2641   -1.7500    0.0000 C   0  0  0  0  0  0  0  0  0  0  0  0
    2.9061   -2.2847    0.0000 C   0  0  0  0  0  0  0  0  0  0  0  0
    2.9061   -0.2153    0.0000 C   0  0  0  0  0  0  0  0  0  0  0  0
    8.1301   -2.2500    0.0000 C   0  0  0  0  0  0  0  0  0  0  0  0
    2.0000   -1.7708    0.0000 C   0  0  0  0  0  0  0  0  0  0  0  0
    2.0000   -0.7292    0.0000 C   0  0  0  0  0  0  0  0  0  0  0  0
    9.8622   -2.2500    0.0000 C   0  0  0  0  0  0  0  0  0  0  0  0
   10.7282   -1.7500    0.0000 C   0  0  0  0  0  0  0  0  0  0  0  0
   10.7282   -0.7500    0.0000 C   0  0  0  0  0  0  0  0  0  0  0  0
   11.5942   -0.2500    0.0000 C   0  0  0  0  0  0  0  0  0  0  0  0
   11.5942    0.7500    0.0000 C   0  0  0  0  0  0  0  0  0  0  0  0
    9.8622   -3.2500    0.0000 C   0  0  0  0  0  0  0  0  0  0  0  0
   11.5942   -2.2500    0.0000 C   0  0  0  0  0  0  0  0  0  0  0  0
   10.7282   -3.7500    0.0000 C   0  0  0  0  0  0  0  0  0  0  0  0
   11.5942   -3.2500    0.0000 C   0  0  0  0  0  0  0  0  0  0  0  0
   12.4603    1.2500    0.0000 C   0  0  0  0  0  0  0  0  0  0  0  0
   10.7282    1.2500    0.0000 C   0  0  0  0  0  0  0  0  0  0  0  0
   12.4603    2.2500    0.0000 C   0  0  0  0  0  0  0  0  0  0  0  0
   10.7282    2.2500    0.0000 C   0  0  0  0  0  0  0  0  0  0  0  0
   11.5942    2.7500    0.0000 C   0  0  0  0  0  0  0  0  0  0  0  0
   13.3263    3.7500    0.0000 C   0  0  0  0  0  0  0  0  0  0  0  0
    6.1426   -0.8577    0.0000 H   0  0  0  0  0  0  0  0  0  0  0  0
    5.7441   -0.1674    0.0000 H   0  0  0  0  0  0  0  0  0  0  0  0
    4.2675   -2.7250    0.0000 H   0  0  0  0  0  0  0  0  0  0  0  0
    5.0646   -2.7250    0.0000 H   0  0  0  0  0  0  0  0  0  0  0  0
    5.0646    0.2249    0.0000 H   0  0  0  0  0  0  0  0  0  0  0  0
    4.2675    0.2249    0.0000 H   0  0  0  0  0  0  0  0  0  0  0  0
    5.9996   -2.7250    0.0000 H   0  0  0  0  0  0  0  0  0  0  0  0
    6.7966   -2.7250    0.0000 H   0  0  0  0  0  0  0  0  0  0  0  0
    7.6626   -1.2750    0.0000 H   0  0  0  0  0  0  0  0  0  0  0  0
    6.8656   -1.2750    0.0000 H   0  0  0  0  0  0  0  0  0  0  0  0
    2.9132   -2.9046    0.0000 H   0  0  0  0  0  0  0  0  0  0  0  0
    2.9132    0.4046    0.0000 H   0  0  0  0  0  0  0  0  0  0  0  0
    7.7316   -2.7250    0.0000 H   0  0  0  0  0  0  0  0  0  0  0  0
    8.5287   -2.7250    0.0000 H   0  0  0  0  0  0  0  0  0  0  0  0
    1.4643   -2.0829    0.0000 H   0  0  0  0  0  0  0  0  0  0  0  0
    1.4643   -0.4171    0.0000 H   0  0  0  0  0  0  0  0  0  0  0  0
   10.5162   -0.1674    0.0000 H   0  0  0  0  0  0  0  0  0  0  0  0
   10.1176   -0.8577    0.0000 H   0  0  0  0  0  0  0  0  0  0  0  0
   11.8063   -0.8326    0.0000 H   0  0  0  0  0  0  0  0  0  0  0  0
   12.2048   -0.1423    0.0000 H   0  0  0  0  0  0  0  0  0  0  0  0
    9.3252   -3.5600    0.0000 H   0  0  0  0  0  0  0  0  0  0  0  0
   12.1312   -1.9400    0.0000 H   0  0  0  0  0  0  0  0  0  0  0  0
   10.7282   -4.3700    0.0000 H   0  0  0  0  0  0  0  0  0  0  0  0
   12.1312   -3.5600    0.0000 H   0  0  0  0  0  0  0  0  0  0  0  0
   12.9972    0.9400    0.0000 H   0  0  0  0  0  0  0  0  0  0  0  0
   10.1913    0.9400    0.0000 H   0  0  0  0  0  0  0  0  0  0  0  0
   10.1913    2.5600    0.0000 H   0  0  0  0  0  0  0  0  0  0  0  0
   11.5942    3.3700    0.0000 H   0  0  0  0  0  0  0  0  0  0  0  0
   13.9463    3.7500    0.0000 H   0  0  0  0  0  0  0  0  0  0  0  0
   13.3263    4.3700    0.0000 H   0  0  0  0  0  0  0  0  0  0  0  0
   12.7063    3.7500    0.0000 H   0  0  0  0  0  0  0  0  0  0  0  0
  1 13  1  0  0  0  0
  1 16  1  0  0  0  0
  2 27  1  0  0  0  0
  2 30  1  0  0  0  0
  3  4  1  0  0  0  0
  3  5  1  0  0  0  0
  3  7  1  0  0  0  0
  4  6  1  0  0  0  0
  4 31  1  0  0  0  0
  4 32  1  0  0  0  0
  5  8  1  0  0  0  0
  5 33  1  0  0  0  0
  5 34  1  0  0  0  0
  6  9  1  0  0  0  0
  6 35  1  0  0  0  0
  6 36  1  0  0  0  0
  7 10  1  0  0  0  0
  7 37  1  0  0  0  0
  7 38  1  0  0  0  0
  8  9  1  0  0  0  0
  8 11  2  0  0  0  0
  9 12  2  0  0  0  0
 10 13  1  0  0  0  0
 10 39  1  0  0  0  0
 10 40  1  0  0  0  0
 11 14  1  0  0  0  0
 11 41  1  0  0  0  0
 12 15  1  0  0  0  0
 12 42  1  0  0  0  0
 13 43  1  0  0  0  0
 13 44  1  0  0  0  0
 14 15  2  0  0  0  0
 14 45  1  0  0  0  0
 15 46  1  0  0  0  0
 16 17  1  0  0  0  0
 16 21  2  0  0  0  0
 17 18  1  0  0  0  0
 17 22  2  0  0  0  0
 18 19  1  0  0  0  0
 18 47  1  0  0  0  0
 18 48  1  0  0  0  0
 19 20  1  0  0  0  0
 19 49  1  0  0  0  0
 19 50  1  0  0  0  0
 20 25  2  0  0  0  0
 20 26  1  0  0  0  0
 21 23  1  0  0  0  0
 21 51  1  0  0  0  0
 22 24  1  0  0  0  0
 22 52  1  0  0  0  0
 23 24  2  0  0  0  0
 23 53  1  0  0  0  0
 24 54  1  0  0  0  0
 25 27  1  0  0  0  0
 25 55  1  0  0  0  0
 26 28  2  0  0  0  0
 26 56  1  0  0  0  0
 27 29  2  0  0  0  0
 28 29  1  0  0  0  0
 28 57  1  0  0  0  0
 29 58  1  0  0  0  0
 30 59  1  0  0  0  0
 30 60  1  0  0  0  0
 30 61  1  0  0  0  0
M  END
> <PUBCHEM_COMPOUND_CID>
25156416

> <PUBCHEM_COMPOUND_CANONICALIZED>
1

> <PUBCHEM_CACTVS_COMPLEXITY>
484

> <PUBCHEM_CACTVS_HBOND_ACCEPTOR>
3

> <PUBCHEM_CACTVS_HBOND_DONOR>
0

> <PUBCHEM_CACTVS_ROTATABLE_BOND>
9

> <PUBCHEM_CACTVS_SUBSKEYS>
AAADceB6MAAAAAAAAAAAAAAAAAAAAAAAAAA8YMEAAAAAAACxUAAAHgAAAAAADAThmAYyBoMABACAAiBCAACCCAAgIAAIiAAODIgMJiKEsRuGOCjmwBGIqAeQwPAOgAABAAAYAAAAAAIAADAAAAAAAAAAAA==

> <PUBCHEM_IUPAC_OPENEYE_NAME>
2-[3-[2-[2-(3-methoxyphenyl)ethyl]phenoxy]propyl]-3,4-dihydro-1H-isoquinoline

> <PUBCHEM_IUPAC_CAS_NAME>
2-[3-[2-[2-(3-methoxyphenyl)ethyl]phenoxy]propyl]-3,4-dihydro-1H-isoquinoline

> <PUBCHEM_IUPAC_NAME_MARKUP>
2-[3-[2-[2-(3-methoxyphenyl)ethyl]phenoxy]propyl]-3,4-dihydro-1<I>H</I>-isoquinoline

> <PUBCHEM_IUPAC_NAME>
2-[3-[2-[2-(3-methoxyphenyl)ethyl]phenoxy]propyl]-3,4-dihydro-1H-isoquinoline

> <PUBCHEM_IUPAC_SYSTEMATIC_NAME>
2-[3-[2-[2-(3-methoxyphenyl)ethyl]phenoxy]propyl]-3,4-dihydro-1H-isoquinoline

> <PUBCHEM_IUPAC_TRADITIONAL_NAME>
2-[3-[2-[2-(3-methoxyphenyl)ethyl]phenoxy]propyl]-3,4-dihydro-1H-isoquinoline

> <PUBCHEM_IUPAC_INCHI>
InChI=1S/C27H31NO2/c1-29-26-12-6-8-22(20-26)14-15-24-10-4-5-13-27(24)30-19-7-17-28-18-16-23-9-2-3-11-25(23)21-28/h2-6,8-13,20H,7,14-19,21H2,1H3

> <PUBCHEM_IUPAC_INCHIKEY>
APPBBNWLWVQQTF-UHFFFAOYSA-N

> <PUBCHEM_XLOGP3_AA>
6

> <PUBCHEM_EXACT_MASS>
401.235479232

> <PUBCHEM_MOLECULAR_FORMULA>
C27H31NO2

> <PUBCHEM_MOLECULAR_WEIGHT>
401.5

> <PUBCHEM_OPENEYE_CAN_SMILES>
COC1=CC=CC(=C1)CCC2=CC=CC=C2OCCCN3CCC4=CC=CC=C4C3

> <PUBCHEM_OPENEYE_ISO_SMILES>
COC1=CC=CC(=C1)CCC2=CC=CC=C2OCCCN3CCC4=CC=CC=C4C3

> <PUBCHEM_CACTVS_TPSA>
21.7

> <PUBCHEM_MONOISOTOPIC_WEIGHT>
401.235479232

> <PUBCHEM_TOTAL_CHARGE>
0

> <PUBCHEM_HEAVY_ATOM_COUNT>
30

> <PUBCHEM_ATOM_DEF_STEREO_COUNT>
0

> <PUBCHEM_ATOM_UDEF_STEREO_COUNT>
0

> <PUBCHEM_BOND_DEF_STEREO_COUNT>
0

> <PUBCHEM_BOND_UDEF_STEREO_COUNT>
0

> <PUBCHEM_ISOTOPIC_ATOM_COUNT>
0

> <PUBCHEM_COMPONENT_COUNT>
1

> <PUBCHEM_CACTVS_TAUTO_COUNT>
-1

> <PUBCHEM_COORDINATE_TYPE>
1
5
255

> <PUBCHEM_BONDANNOTATIONS>
11  14  8
12  15  8
14  15  8
16  17  8
16  21  8
17  22  8
20  25  8
20  26  8
21  23  8
22  24  8
23  24  8
25  27  8
26  28  8
27  29  8
28  29  8
8  11  8
8  9  8
9  12  8

$$$$
