56664951
  -OEChem-09292322322D

 72 74  0     0  0  0  0  0  0999 V2000
   10.0663    3.6534    0.0000 O   0  0  0  0  0  0  0  0  0  0  0  0
    1.4061    3.6200    0.0000 O   0  0  0  0  0  0  0  0  0  0  0  0
   15.3284    3.6775    0.0000 O   0  0  0  0  0  0  0  0  0  0  0  0
    8.9633    9.3428    0.0000 O   0  0  0  0  0  0  0  0  0  0  0  0
    6.3652    9.8428    0.0000 O   0  0  0  0  0  0  0  0  0  0  0  0
    8.0972   10.8428    0.0000 O   0  0  0  0  0  0  0  0  0  0  0  0
    7.2312    8.3428    0.0000 O   0  0  0  0  0  0  0  0  0  0  0  0
    4.8702    3.6333    0.0000 N   0  0  0  0  0  0  0  0  0  0  0  0
    3.1420    2.6267    0.0000 N   0  0  0  0  0  0  0  0  0  0  0  0
   13.5964    3.6775    0.0000 N   0  0  0  0  0  0  0  0  0  0  0  0
    4.0022    4.1300    0.0000 C   0  0  0  0  0  0  0  0  0  0  0  0
    4.8740    2.6333    0.0000 C   0  0  0  0  0  0  0  0  0  0  0  0
    3.1381    3.6266    0.0000 C   0  0  0  0  0  0  0  0  0  0  0  0
    4.0099    2.1300    0.0000 C   0  0  0  0  0  0  0  0  0  0  0  0
    5.7342    4.1367    0.0000 C   0  0  0  0  0  0  0  0  0  0  0  0
    6.6022    3.6400    0.0000 C   0  0  0  0  0  0  0  0  0  0  0  0
    7.4663    4.1433    0.0000 C   0  0  0  0  0  0  0  0  0  0  0  0
    2.2779    2.1233    0.0000 C   0  0  0  0  0  0  0  0  0  0  0  0
    8.3342    3.6467    0.0000 C   0  0  0  0  0  0  0  0  0  0  0  0
    1.4099    2.6200    0.0000 C   0  0  0  0  0  0  0  0  0  0  0  0
    2.2817    1.1233    0.0000 C   0  0  0  0  0  0  0  0  0  0  0  0
    9.1983    4.1500    0.0000 C   0  0  0  0  0  0  0  0  0  0  0  0
    0.5458    2.1166    0.0000 C   0  0  0  0  0  0  0  0  0  0  0  0
    1.4176    0.6200    0.0000 C   0  0  0  0  0  0  0  0  0  0  0  0
    0.5497    1.1166    0.0000 C   0  0  0  0  0  0  0  0  0  0  0  0
   12.7304    5.1775    0.0000 C   0  0  0  0  0  0  0  0  0  0  0  0
   10.9304    4.1567    0.0000 C   0  0  0  0  0  0  0  0  0  0  0  0
   13.5964    5.6775    0.0000 C   0  0  0  0  0  0  0  0  0  0  0  0
   12.7304    4.1775    0.0000 C   0  0  0  0  0  0  0  0  0  0  0  0
   14.4624    5.1775    0.0000 C   0  0  0  0  0  0  0  0  0  0  0  0
   11.8364    3.6428    0.0000 C   0  0  0  0  0  0  0  0  0  0  0  0
   11.8364    5.7122    0.0000 C   0  0  0  0  0  0  0  0  0  0  0  0
   10.9304    5.1983    0.0000 C   0  0  0  0  0  0  0  0  0  0  0  0
   14.4624    4.1775    0.0000 C   0  0  0  0  0  0  0  0  0  0  0  0
    0.5381    4.1166    0.0000 C   0  0  0  0  0  0  0  0  0  0  0  0
    8.0972    9.8428    0.0000 C   0  0  0  0  0  0  0  0  0  0  0  0
    7.2312    9.3428    0.0000 C   0  0  0  0  0  0  0  0  0  0  0  0
    4.3989    4.6065    0.0000 H   0  0  0  0  0  0  0  0  0  0  0  0
    3.6018    4.6034    0.0000 H   0  0  0  0  0  0  0  0  0  0  0  0
    5.0883    2.0516    0.0000 H   0  0  0  0  0  0  0  0  0  0  0  0
    5.4842    2.7434    0.0000 H   0  0  0  0  0  0  0  0  0  0  0  0
    2.9238    4.2084    0.0000 H   0  0  0  0  0  0  0  0  0  0  0  0
    2.5280    3.5166    0.0000 H   0  0  0  0  0  0  0  0  0  0  0  0
    3.6132    1.6535    0.0000 H   0  0  0  0  0  0  0  0  0  0  0  0
    4.4103    1.6566    0.0000 H   0  0  0  0  0  0  0  0  0  0  0  0
    6.1309    4.6131    0.0000 H   0  0  0  0  0  0  0  0  0  0  0  0
    5.3339    4.6101    0.0000 H   0  0  0  0  0  0  0  0  0  0  0  0
    6.2055    3.1635    0.0000 H   0  0  0  0  0  0  0  0  0  0  0  0
    7.0025    3.1666    0.0000 H   0  0  0  0  0  0  0  0  0  0  0  0
    7.8630    4.6198    0.0000 H   0  0  0  0  0  0  0  0  0  0  0  0
    7.0659    4.6167    0.0000 H   0  0  0  0  0  0  0  0  0  0  0  0
    7.9375    3.1702    0.0000 H   0  0  0  0  0  0  0  0  0  0  0  0
    8.7346    3.1733    0.0000 H   0  0  0  0  0  0  0  0  0  0  0  0
    2.8199    0.8154    0.0000 H   0  0  0  0  0  0  0  0  0  0  0  0
    9.5950    4.6265    0.0000 H   0  0  0  0  0  0  0  0  0  0  0  0
    8.7980    4.6234    0.0000 H   0  0  0  0  0  0  0  0  0  0  0  0
    0.0077    2.4246    0.0000 H   0  0  0  0  0  0  0  0  0  0  0  0
    1.4200    0.0000    0.0000 H   0  0  0  0  0  0  0  0  0  0  0  0
    0.0140    0.8046    0.0000 H   0  0  0  0  0  0  0  0  0  0  0  0
   13.9949    6.1524    0.0000 H   0  0  0  0  0  0  0  0  0  0  0  0
   13.1979    6.1524    0.0000 H   0  0  0  0  0  0  0  0  0  0  0  0
   15.0730    5.0698    0.0000 H   0  0  0  0  0  0  0  0  0  0  0  0
   14.6745    5.7601    0.0000 H   0  0  0  0  0  0  0  0  0  0  0  0
   11.8436    3.0229    0.0000 H   0  0  0  0  0  0  0  0  0  0  0  0
   11.8436    6.3321    0.0000 H   0  0  0  0  0  0  0  0  0  0  0  0
   10.3946    5.5104    0.0000 H   0  0  0  0  0  0  0  0  0  0  0  0
   13.5964    3.0575    0.0000 H   0  0  0  0  0  0  0  0  0  0  0  0
    0.8461    4.6548    0.0000 H   0  0  0  0  0  0  0  0  0  0  0  0
    0.0000    4.4246    0.0000 H   0  0  0  0  0  0  0  0  0  0  0  0
    0.2302    3.5785    0.0000 H   0  0  0  0  0  0  0  0  0  0  0  0
    9.5002    9.6528    0.0000 H   0  0  0  0  0  0  0  0  0  0  0  0
    5.8282    9.5328    0.0000 H   0  0  0  0  0  0  0  0  0  0  0  0
  1 22  1  0  0  0  0
  1 27  1  0  0  0  0
  2 20  1  0  0  0  0
  2 35  1  0  0  0  0
  3 34  2  0  0  0  0
  4 36  1  0  0  0  0
  4 71  1  0  0  0  0
  5 37  1  0  0  0  0
  5 72  1  0  0  0  0
  6 36  2  0  0  0  0
  7 37  2  0  0  0  0
  8 11  1  0  0  0  0
  8 12  1  0  0  0  0
  8 15  1  0  0  0  0
  9 13  1  0  0  0  0
  9 14  1  0  0  0  0
  9 18  1  0  0  0  0
 10 29  1  0  0  0  0
 10 34  1  0  0  0  0
 10 67  1  0  0  0  0
 11 13  1  0  0  0  0
 11 38  1  0  0  0  0
 11 39  1  0  0  0  0
 12 14  1  0  0  0  0
 12 40  1  0  0  0  0
 12 41  1  0  0  0  0
 13 42  1  0  0  0  0
 13 43  1  0  0  0  0
 14 44  1  0  0  0  0
 14 45  1  0  0  0  0
 15 16  1  0  0  0  0
 15 46  1  0  0  0  0
 15 47  1  0  0  0  0
 16 17  1  0  0  0  0
 16 48  1  0  0  0  0
 16 49  1  0  0  0  0
 17 19  1  0  0  0  0
 17 50  1  0  0  0  0
 17 51  1  0  0  0  0
 18 20  1  0  0  0  0
 18 21  2  0  0  0  0
 19 22  1  0  0  0  0
 19 52  1  0  0  0  0
 19 53  1  0  0  0  0
 20 23  2  0  0  0  0
 21 24  1  0  0  0  0
 21 54  1  0  0  0  0
 22 55  1  0  0  0  0
 22 56  1  0  0  0  0
 23 25  1  0  0  0  0
 23 57  1  0  0  0  0
 24 25  2  0  0  0  0
 24 58  1  0  0  0  0
 25 59  1  0  0  0  0
 26 28  1  0  0  0  0
 26 29  2  0  0  0  0
 26 32  1  0  0  0  0
 27 31  2  0  0  0  0
 27 33  1  0  0  0  0
 28 30  1  0  0  0  0
 28 60  1  0  0  0  0
 28 61  1  0  0  0  0
 29 31  1  0  0  0  0
 30 34  1  0  0  0  0
 30 62  1  0  0  0  0
 30 63  1  0  0  0  0
 31 64  1  0  0  0  0
 32 33  2  0  0  0  0
 32 65  1  0  0  0  0
 33 66  1  0  0  0  0
 35 68  1  0  0  0  0
 35 69  1  0  0  0  0
 35 70  1  0  0  0  0
 36 37  1  0  0  0  0
M  END
> <PUBCHEM_COMPOUND_CID>
56664951

> <PUBCHEM_COMPOUND_CANONICALIZED>
1

> <PUBCHEM_CACTVS_COMPLEXITY>
624

> <PUBCHEM_CACTVS_HBOND_ACCEPTOR>
9

> <PUBCHEM_CACTVS_HBOND_DONOR>
3

> <PUBCHEM_CACTVS_ROTATABLE_BOND>
10

> <PUBCHEM_CACTVS_SUBSKEYS>
AAADcfB7OAAAAAAAAAAAAAAAAAAAAAAAAAA8eIEAAAAAAACxQAAAHgAQCAAADAzhmAYyzoPABgCIAiXSWAKCCAAhIgAIiAFPbIgPZjLEsZuXOCjm1BnZ6AeY2aOeIAAAAgACEABAAAAEAAQgAAAAAAAAAA==

> <PUBCHEM_IUPAC_OPENEYE_NAME>
7-[5-[4-(2-methoxyphenyl)piperazin-1-yl]pentoxy]-3,4-dihydro-1H-quinolin-2-one;oxalic acid

> <PUBCHEM_IUPAC_CAS_NAME>
7-[5-[4-(2-methoxyphenyl)-1-piperazinyl]pentoxy]-3,4-dihydro-1H-quinolin-2-one;oxalic acid

> <PUBCHEM_IUPAC_NAME_MARKUP>
7-[5-[4-(2-methoxyphenyl)piperazin-1-yl]pentoxy]-3,4-dihydro-1<I>H</I>-quinolin-2-one;oxalic acid

> <PUBCHEM_IUPAC_NAME>
7-[5-[4-(2-methoxyphenyl)piperazin-1-yl]pentoxy]-3,4-dihydro-1H-quinolin-2-one;oxalic acid

> <PUBCHEM_IUPAC_SYSTEMATIC_NAME>
ethanedioic acid;7-[5-[4-(2-methoxyphenyl)piperazin-1-yl]pentoxy]-3,4-dihydro-1H-quinolin-2-one

> <PUBCHEM_IUPAC_TRADITIONAL_NAME>
7-[5-[4-(2-methoxyphenyl)piperazino]pentoxy]-3,4-dihydrocarbostyril;oxalic acid

> <PUBCHEM_IUPAC_INCHI>
InChI=1S/C25H33N3O3.C2H2O4/c1-30-24-8-4-3-7-23(24)28-16-14-27(15-17-28)13-5-2-6-18-31-21-11-9-20-10-12-25(29)26-22(20)19-21;3-1(4)2(5)6/h3-4,7-9,11,19H,2,5-6,10,12-18H2,1H3,(H,26,29);(H,3,4)(H,5,6)

> <PUBCHEM_IUPAC_INCHIKEY>
BSQSMXVIPTXAJP-UHFFFAOYSA-N

> <PUBCHEM_EXACT_MASS>
513.24750046

> <PUBCHEM_MOLECULAR_FORMULA>
C27H35N3O7

> <PUBCHEM_MOLECULAR_WEIGHT>
513.6

> <PUBCHEM_OPENEYE_CAN_SMILES>
COC1=CC=CC=C1N2CCN(CC2)CCCCCOC3=CC4=C(CCC(=O)N4)C=C3.C(=O)(C(=O)O)O

> <PUBCHEM_OPENEYE_ISO_SMILES>
COC1=CC=CC=C1N2CCN(CC2)CCCCCOC3=CC4=C(CCC(=O)N4)C=C3.C(=O)(C(=O)O)O

> <PUBCHEM_CACTVS_TPSA>
129

> <PUBCHEM_MONOISOTOPIC_WEIGHT>
513.24750046

> <PUBCHEM_TOTAL_CHARGE>
0

> <PUBCHEM_HEAVY_ATOM_COUNT>
37

> <PUBCHEM_ATOM_DEF_STEREO_COUNT>
0

> <PUBCHEM_ATOM_UDEF_STEREO_COUNT>
0

> <PUBCHEM_BOND_DEF_STEREO_COUNT>
0

> <PUBCHEM_BOND_UDEF_STEREO_COUNT>
0

> <PUBCHEM_ISOTOPIC_ATOM_COUNT>
0

> <PUBCHEM_COMPONENT_COUNT>
2

> <PUBCHEM_CACTVS_TAUTO_COUNT>
-1

> <PUBCHEM_COORDINATE_TYPE>
1
5
255

> <PUBCHEM_BONDANNOTATIONS>
18  20  8
18  21  8
20  23  8
21  24  8
23  25  8
24  25  8
26  29  8
26  32  8
27  31  8
27  33  8
29  31  8
32  33  8

$$$$
