56944954
  -OEChem-09292322392D

 54 57  0     1  0  0  0  0  0999 V2000
    2.0000   -3.2145    0.0000 Cl  0  0  0  0  0  0  0  0  0  0  0  0
    9.3653    2.7058    0.0000 S   0  0  0  0  0  0  0  0  0  0  0  0
   10.3158    2.3951    0.0000 O   0  0  0  0  0  0  0  0  0  0  0  0
    8.4148    3.0164    0.0000 O   0  0  0  0  0  0  0  0  0  0  0  0
   11.9436    5.0193    0.0000 O   0  0  0  0  0  0  0  0  0  0  0  0
    6.4763   -0.5582    0.0000 N   0  0  3  0  0  0  0  0  0  0  0  0
    5.5443   -5.0193    0.0000 N   0  0  0  0  0  0  0  0  0  0  0  0
    9.0546    1.7552    0.0000 N   0  0  0  0  0  0  0  0  0  0  0  0
    5.4978   -0.7644    0.0000 C   0  0  0  0  0  0  0  0  0  0  0  0
    5.1871   -1.7150    0.0000 C   0  0  0  0  0  0  0  0  0  0  0  0
    7.1441   -1.3025    0.0000 C   0  0  0  0  0  0  0  0  0  0  0  0
    6.7870    0.3923    0.0000 C   0  0  0  0  0  0  0  0  0  0  0  0
    5.8550   -2.4593    0.0000 C   0  0  0  0  0  0  0  0  0  0  0  0
    6.8335   -2.2530    0.0000 C   0  0  0  0  0  0  0  0  0  0  0  0
    7.7654    0.5985    0.0000 C   0  0  0  0  0  0  0  0  0  0  0  0
    5.5443   -3.4098    0.0000 C   0  0  0  0  0  0  0  0  0  0  0  0
    8.0761    1.5490    0.0000 C   0  0  0  0  0  0  0  0  0  0  0  0
    4.5981   -3.7145    0.0000 C   0  0  0  0  0  0  0  0  0  0  0  0
    6.1279   -4.2145    0.0000 C   0  0  0  0  0  0  0  0  0  0  0  0
    4.5981   -4.7145    0.0000 C   0  0  0  0  0  0  0  0  0  0  0  0
    3.7320   -3.2145    0.0000 C   0  0  0  0  0  0  0  0  0  0  0  0
    3.7320   -5.2145    0.0000 C   0  0  0  0  0  0  0  0  0  0  0  0
    2.8660   -3.7145    0.0000 C   0  0  0  0  0  0  0  0  0  0  0  0
    2.8660   -4.7145    0.0000 C   0  0  0  0  0  0  0  0  0  0  0  0
    9.6759    3.6563    0.0000 C   0  0  0  0  0  0  0  0  0  0  0  0
   10.6545    3.8625    0.0000 C   0  0  0  0  0  0  0  0  0  0  0  0
    9.0081    4.4006    0.0000 C   0  0  0  0  0  0  0  0  0  0  0  0
   10.9651    4.8130    0.0000 C   0  0  0  0  0  0  0  0  0  0  0  0
    9.3188    5.3511    0.0000 C   0  0  0  0  0  0  0  0  0  0  0  0
   10.2973    5.5573    0.0000 C   0  0  0  0  0  0  0  0  0  0  0  0
    5.4772   -0.1448    0.0000 H   0  0  0  0  0  0  0  0  0  0  0  0
    4.8840   -0.6771    0.0000 H   0  0  0  0  0  0  0  0  0  0  0  0
    4.6402   -1.4230    0.0000 H   0  0  0  0  0  0  0  0  0  0  0  0
    4.8046   -2.2029    0.0000 H   0  0  0  0  0  0  0  0  0  0  0  0
    7.6910   -1.5946    0.0000 H   0  0  0  0  0  0  0  0  0  0  0  0
    7.5267   -0.8146    0.0000 H   0  0  0  0  0  0  0  0  0  0  0  0
    6.7664    1.0119    0.0000 H   0  0  0  0  0  0  0  0  0  0  0  0
    6.1731    0.4796    0.0000 H   0  0  0  0  0  0  0  0  0  0  0  0
    7.2475   -2.7145    0.0000 H   0  0  0  0  0  0  0  0  0  0  0  0
    7.7860   -0.0211    0.0000 H   0  0  0  0  0  0  0  0  0  0  0  0
    8.3793    0.5112    0.0000 H   0  0  0  0  0  0  0  0  0  0  0  0
    8.0556    2.1687    0.0000 H   0  0  0  0  0  0  0  0  0  0  0  0
    7.4623    1.6364    0.0000 H   0  0  0  0  0  0  0  0  0  0  0  0
    6.7479   -4.2145    0.0000 H   0  0  0  0  0  0  0  0  0  0  0  0
    5.7369   -5.6086    0.0000 H   0  0  0  0  0  0  0  0  0  0  0  0
    9.4687    1.2938    0.0000 H   0  0  0  0  0  0  0  0  0  0  0  0
    3.7320   -2.5945    0.0000 H   0  0  0  0  0  0  0  0  0  0  0  0
    3.7320   -5.8345    0.0000 H   0  0  0  0  0  0  0  0  0  0  0  0
    2.3291   -5.0245    0.0000 H   0  0  0  0  0  0  0  0  0  0  0  0
   11.0685    3.4010    0.0000 H   0  0  0  0  0  0  0  0  0  0  0  0
    8.4014    4.2727    0.0000 H   0  0  0  0  0  0  0  0  0  0  0  0
    8.9047    5.8126    0.0000 H   0  0  0  0  0  0  0  0  0  0  0  0
   10.4899    6.1467    0.0000 H   0  0  0  0  0  0  0  0  0  0  0  0
   12.1362    5.6086    0.0000 H   0  0  0  0  0  0  0  0  0  0  0  0
  1 23  1  0  0  0  0
  2  3  2  0  0  0  0
  2  4  2  0  0  0  0
  2  8  1  0  0  0  0
  2 25  1  0  0  0  0
  5 28  1  0  0  0  0
  5 54  1  0  0  0  0
  6  9  1  0  0  0  0
  6 11  1  0  0  0  0
  6 12  1  0  0  0  0
  7 19  1  0  0  0  0
  7 20  1  0  0  0  0
  7 45  1  0  0  0  0
  8 17  1  0  0  0  0
  8 46  1  0  0  0  0
  9 10  1  0  0  0  0
  9 31  1  0  0  0  0
  9 32  1  0  0  0  0
 10 13  1  0  0  0  0
 10 33  1  0  0  0  0
 10 34  1  0  0  0  0
 11 14  1  0  0  0  0
 11 35  1  0  0  0  0
 11 36  1  0  0  0  0
 12 15  1  0  0  0  0
 12 37  1  0  0  0  0
 12 38  1  0  0  0  0
 13 14  2  0  0  0  0
 13 16  1  0  0  0  0
 14 39  1  0  0  0  0
 15 17  1  0  0  0  0
 15 40  1  0  0  0  0
 15 41  1  0  0  0  0
 16 18  1  0  0  0  0
 16 19  2  0  0  0  0
 17 42  1  0  0  0  0
 17 43  1  0  0  0  0
 18 20  2  0  0  0  0
 18 21  1  0  0  0  0
 19 44  1  0  0  0  0
 20 22  1  0  0  0  0
 21 23  2  0  0  0  0
 21 47  1  0  0  0  0
 22 24  2  0  0  0  0
 22 48  1  0  0  0  0
 23 24  1  0  0  0  0
 24 49  1  0  0  0  0
 25 26  1  0  0  0  0
 25 27  2  0  0  0  0
 26 28  2  0  0  0  0
 26 50  1  0  0  0  0
 27 29  1  0  0  0  0
 27 51  1  0  0  0  0
 28 30  1  0  0  0  0
 29 30  2  0  0  0  0
 29 52  1  0  0  0  0
 30 53  1  0  0  0  0
M  END
> <PUBCHEM_COMPOUND_CID>
56944954

> <PUBCHEM_COMPOUND_CANONICALIZED>
1

> <PUBCHEM_CACTVS_COMPLEXITY>
711

> <PUBCHEM_CACTVS_HBOND_ACCEPTOR>
5

> <PUBCHEM_CACTVS_HBOND_DONOR>
3

> <PUBCHEM_CACTVS_ROTATABLE_BOND>
7

> <PUBCHEM_CACTVS_SUBSKEYS>
AAADceB7MABEAAAAAAAAAAAAAAAAAWAAAAAwYIAAAAAAAFgB9AAAHgYQSAAADA7B3iQ8x/PJkgKgAzRnRHDCgDAxJyAI2bg+bpgIJuLD05OEcAhk0BHI2AeQwMAOgABAJAACAAAAAIBIAAQAAAAAAAAAAA==

> <PUBCHEM_IUPAC_OPENEYE_NAME>
N-[3-[4-(5-chloro-1H-indol-3-yl)-3,6-dihydro-2H-pyridin-1-yl]propyl]-3-hydroxy-benzenesulfonamide

> <PUBCHEM_IUPAC_CAS_NAME>
N-[3-[4-(5-chloro-1H-indol-3-yl)-3,6-dihydro-2H-pyridin-1-yl]propyl]-3-hydroxybenzenesulfonamide

> <PUBCHEM_IUPAC_NAME_MARKUP>
<I>N</I>-[3-[4-(5-chloro-1<I>H</I>-indol-3-yl)-3,6-dihydro-2<I>H</I>-pyridin-1-yl]propyl]-3-hydroxybenzenesulfonamide

> <PUBCHEM_IUPAC_NAME>
N-[3-[4-(5-chloro-1H-indol-3-yl)-3,6-dihydro-2H-pyridin-1-yl]propyl]-3-hydroxybenzenesulfonamide

> <PUBCHEM_IUPAC_SYSTEMATIC_NAME>
N-[3-[4-(5-chloranyl-1H-indol-3-yl)-3,6-dihydro-2H-pyridin-1-yl]propyl]-3-oxidanyl-benzenesulfonamide

> <PUBCHEM_IUPAC_TRADITIONAL_NAME>
N-[3-[4-(5-chloro-1H-indol-3-yl)-3,6-dihydro-2H-pyridin-1-yl]propyl]-3-hydroxy-benzenesulfonamide

> <PUBCHEM_IUPAC_INCHI>
InChI=1S/C22H24ClN3O3S/c23-17-5-6-22-20(13-17)21(15-24-22)16-7-11-26(12-8-16)10-2-9-25-30(28,29)19-4-1-3-18(27)14-19/h1,3-7,13-15,24-25,27H,2,8-12H2

> <PUBCHEM_IUPAC_INCHIKEY>
LPJJPPHJSYTROB-UHFFFAOYSA-N

> <PUBCHEM_XLOGP3_AA>
3.6

> <PUBCHEM_EXACT_MASS>
445.1226905

> <PUBCHEM_MOLECULAR_FORMULA>
C22H24ClN3O3S

> <PUBCHEM_MOLECULAR_WEIGHT>
446.0

> <PUBCHEM_OPENEYE_CAN_SMILES>
C1CN(CC=C1C2=CNC3=C2C=C(C=C3)Cl)CCCNS(=O)(=O)C4=CC=CC(=C4)O

> <PUBCHEM_OPENEYE_ISO_SMILES>
C1CN(CC=C1C2=CNC3=C2C=C(C=C3)Cl)CCCNS(=O)(=O)C4=CC=CC(=C4)O

> <PUBCHEM_CACTVS_TPSA>
93.8

> <PUBCHEM_MONOISOTOPIC_WEIGHT>
445.1226905

> <PUBCHEM_TOTAL_CHARGE>
0

> <PUBCHEM_HEAVY_ATOM_COUNT>
30

> <PUBCHEM_ATOM_DEF_STEREO_COUNT>
0

> <PUBCHEM_ATOM_UDEF_STEREO_COUNT>
0

> <PUBCHEM_BOND_DEF_STEREO_COUNT>
0

> <PUBCHEM_BOND_UDEF_STEREO_COUNT>
0

> <PUBCHEM_ISOTOPIC_ATOM_COUNT>
0

> <PUBCHEM_COMPONENT_COUNT>
1

> <PUBCHEM_CACTVS_TAUTO_COUNT>
-1

> <PUBCHEM_COORDINATE_TYPE>
1
5
255

> <PUBCHEM_BONDANNOTATIONS>
16  18  8
16  19  8
18  20  8
18  21  8
20  22  8
21  23  8
22  24  8
23  24  8
25  26  8
25  27  8
26  28  8
27  29  8
28  30  8
29  30  8
7  19  8
7  20  8

$$$$
