10355252
  -OEChem-09292322152D

 36 40  0     1  0  0  0  0  0999 V2000
    2.8911    1.2831    0.0000 N   0  0  3  0  0  0  0  0  0  0  0  0
    6.3543   -1.7002    0.0000 N   0  0  0  0  0  0  0  0  0  0  0  0
    3.7493    0.7862    0.0000 C   0  0  1  0  0  0  0  0  0  0  0  0
    3.7493   -0.2138    0.0000 C   0  0  0  0  0  0  0  0  0  0  0  0
    4.6153    1.2862    0.0000 C   0  0  0  0  0  0  0  0  0  0  0  0
    4.6153   -0.7138    0.0000 C   0  0  0  0  0  0  0  0  0  0  0  0
    2.8393   -0.7207    0.0000 C   0  0  0  0  0  0  0  0  0  0  0  0
    2.0256    0.7989    0.0000 C   0  0  0  0  0  0  0  0  0  0  0  0
    2.0000   -0.1924    0.0000 C   0  0  0  0  0  0  0  0  0  0  0  0
    5.4814    0.7862    0.0000 C   0  0  0  0  0  0  0  0  0  0  0  0
    5.4814   -0.2138    0.0000 C   0  0  0  0  0  0  0  0  0  0  0  0
    4.6314   -1.7553    0.0000 C   0  0  0  0  0  0  0  0  0  0  0  0
    2.8313   -1.7623    0.0000 C   0  0  0  0  0  0  0  0  0  0  0  0
    2.8985    2.2831    0.0000 C   0  0  0  0  0  0  0  0  0  0  0  0
    6.3408   -0.7086    0.0000 C   0  0  0  0  0  0  0  0  0  0  0  0
    3.7334   -2.2831    0.0000 C   0  0  0  0  0  0  0  0  0  0  0  0
    6.3522    1.3003    0.0000 C   0  0  0  0  0  0  0  0  0  0  0  0
    5.5085   -2.2181    0.0000 C   0  0  0  0  0  0  0  0  0  0  0  0
    7.2233   -0.2147    0.0000 C   0  0  0  0  0  0  0  0  0  0  0  0
    7.2290    0.7965    0.0000 C   0  0  0  0  0  0  0  0  0  0  0  0
    3.7498    1.6362    0.0000 H   0  0  0  0  0  0  0  0  0  0  0  0
    5.0139    1.7611    0.0000 H   0  0  0  0  0  0  0  0  0  0  0  0
    4.2168    1.7611    0.0000 H   0  0  0  0  0  0  0  0  0  0  0  0
    1.8239    1.3852    0.0000 H   0  0  0  0  0  0  0  0  0  0  0  0
    1.4128    0.7046    0.0000 H   0  0  0  0  0  0  0  0  0  0  0  0
    1.3929   -0.0665    0.0000 H   0  0  0  0  0  0  0  0  0  0  0  0
    1.7682   -0.7675    0.0000 H   0  0  0  0  0  0  0  0  0  0  0  0
    2.2932   -2.0702    0.0000 H   0  0  0  0  0  0  0  0  0  0  0  0
    3.5185    2.2785    0.0000 H   0  0  0  0  0  0  0  0  0  0  0  0
    2.9031    2.9031    0.0000 H   0  0  0  0  0  0  0  0  0  0  0  0
    2.2785    2.2877    0.0000 H   0  0  0  0  0  0  0  0  0  0  0  0
    3.7358   -2.9031    0.0000 H   0  0  0  0  0  0  0  0  0  0  0  0
    6.3485    1.9203    0.0000 H   0  0  0  0  0  0  0  0  0  0  0  0
    5.5284   -2.8378    0.0000 H   0  0  0  0  0  0  0  0  0  0  0  0
    7.7572   -0.5298    0.0000 H   0  0  0  0  0  0  0  0  0  0  0  0
    7.7665    1.1056    0.0000 H   0  0  0  0  0  0  0  0  0  0  0  0
  1  3  1  0  0  0  0
  1  8  1  0  0  0  0
  1 14  1  0  0  0  0
  2 15  1  0  0  0  0
  2 18  2  0  0  0  0
  3  4  1  0  0  0  0
  3  5  1  0  0  0  0
  3 21  1  1  0  0  0
  4  6  1  0  0  0  0
  4  7  2  0  0  0  0
  5 10  1  0  0  0  0
  5 22  1  0  0  0  0
  5 23  1  0  0  0  0
  6 11  1  0  0  0  0
  6 12  2  0  0  0  0
  7  9  1  0  0  0  0
  7 13  1  0  0  0  0
  8  9  1  0  0  0  0
  8 24  1  0  0  0  0
  8 25  1  0  0  0  0
  9 26  1  0  0  0  0
  9 27  1  0  0  0  0
 10 11  2  0  0  0  0
 10 17  1  0  0  0  0
 11 15  1  0  0  0  0
 12 16  1  0  0  0  0
 12 18  1  0  0  0  0
 13 16  2  0  0  0  0
 13 28  1  0  0  0  0
 14 29  1  0  0  0  0
 14 30  1  0  0  0  0
 14 31  1  0  0  0  0
 15 19  2  0  0  0  0
 16 32  1  0  0  0  0
 17 20  2  0  0  0  0
 17 33  1  0  0  0  0
 18 34  1  0  0  0  0
 19 20  1  0  0  0  0
 19 35  1  0  0  0  0
 20 36  1  0  0  0  0
M  END
> <PUBCHEM_COMPOUND_CID>
10355252

> <PUBCHEM_COMPOUND_CANONICALIZED>
1

> <PUBCHEM_CACTVS_COMPLEXITY>
395

> <PUBCHEM_CACTVS_HBOND_ACCEPTOR>
2

> <PUBCHEM_CACTVS_HBOND_DONOR>
0

> <PUBCHEM_CACTVS_ROTATABLE_BOND>
0

> <PUBCHEM_CACTVS_SUBSKEYS>
AAADceB7AAAAAAAAAAAAAAAAAAAAAAAAAAA8eMECAAAAAADx/AAAHAAAAAAADCjBHgQ+wPMIEACgAzRnRACCgCAxAiAI2CA4ZJgIIOLAkZGEIAhggADIyAcQgMAOwAACQAASAACQAASAACQAAAAAAAAAAA==

> <PUBCHEM_IUPAC_OPENEYE_NAME>
(1R)-2-methyl-2,10-diazapentacyclo[13.3.1.05,18.08,17.011,16]nonadeca-5(18),6,8(17),9,11,13,15-heptaene

> <PUBCHEM_IUPAC_CAS_NAME>
(1R)-2-methyl-2,10-diazapentacyclo[13.3.1.05,18.08,17.011,16]nonadeca-5(18),6,8(17),9,11,13,15-heptaene

> <PUBCHEM_IUPAC_NAME_MARKUP>
(1<I>R</I>)-2-methyl-2,10-diazapentacyclo[13.3.1.0<SUP>5,18</SUP>.0<SUP>8,17</SUP>.0<SUP>11,16</SUP>]nonadeca-5(18),6,8(17),9,11,13,15-heptaene

> <PUBCHEM_IUPAC_NAME>
(1R)-2-methyl-2,10-diazapentacyclo[13.3.1.05,18.08,17.011,16]nonadeca-5(18),6,8(17),9,11,13,15-heptaene

> <PUBCHEM_IUPAC_SYSTEMATIC_NAME>
(1R)-2-methyl-2,10-diazapentacyclo[13.3.1.05,18.08,17.011,16]nonadeca-5(18),6,8(17),9,11,13,15-heptaene

> <PUBCHEM_IUPAC_TRADITIONAL_NAME>
(1R)-2-methyl-2,10-diazapentacyclo[13.3.1.05,18.08,17.011,16]nonadeca-5(18),6,8(17),9,11,13,15-heptaene

> <PUBCHEM_IUPAC_INCHI>
InChI=1S/C18H16N2/c1-20-8-7-11-5-6-13-10-19-14-4-2-3-12-9-15(20)17(11)18(13)16(12)14/h2-6,10,15H,7-9H2,1H3/t15-/m1/s1

> <PUBCHEM_IUPAC_INCHIKEY>
XKOOJEWWQSZWFX-OAHLLOKOSA-N

> <PUBCHEM_XLOGP3_AA>
3.4

> <PUBCHEM_EXACT_MASS>
260.131348519

> <PUBCHEM_MOLECULAR_FORMULA>
C18H16N2

> <PUBCHEM_MOLECULAR_WEIGHT>
260.3

> <PUBCHEM_OPENEYE_CAN_SMILES>
CN1CCC2=C3C1CC4=C5C3=C(C=C2)C=NC5=CC=C4

> <PUBCHEM_OPENEYE_ISO_SMILES>
CN1CCC2=C3[C@H]1CC4=C5C3=C(C=C2)C=NC5=CC=C4

> <PUBCHEM_CACTVS_TPSA>
16.1

> <PUBCHEM_MONOISOTOPIC_WEIGHT>
260.131348519

> <PUBCHEM_TOTAL_CHARGE>
0

> <PUBCHEM_HEAVY_ATOM_COUNT>
20

> <PUBCHEM_ATOM_DEF_STEREO_COUNT>
1

> <PUBCHEM_ATOM_UDEF_STEREO_COUNT>
0

> <PUBCHEM_BOND_DEF_STEREO_COUNT>
0

> <PUBCHEM_BOND_UDEF_STEREO_COUNT>
0

> <PUBCHEM_ISOTOPIC_ATOM_COUNT>
0

> <PUBCHEM_COMPONENT_COUNT>
1

> <PUBCHEM_CACTVS_TAUTO_COUNT>
-1

> <PUBCHEM_COORDINATE_TYPE>
1
5
255

> <PUBCHEM_BONDANNOTATIONS>
10  11  8
10  17  8
11  15  8
12  16  8
12  18  8
13  16  8
15  19  8
17  20  8
19  20  8
2  15  8
2  18  8
3  21  5
4  6  8
4  7  8
6  11  8
6  12  8
7  13  8

$$$$
