15291583
  -OEChem-09292322202D

102109  0     0  0  0  0  0  0999 V2000
    9.2619   -2.6192    0.0000 O   0  0  0  0  0  0  0  0  0  0  0  0
    8.4487    0.4681    0.0000 O   0  0  0  0  0  0  0  0  0  0  0  0
   12.2619   -4.3513    0.0000 N   0  0  0  0  0  0  0  0  0  0  0  0
   11.8926    0.0941    0.0000 N   0  0  0  0  0  0  0  0  0  0  0  0
    4.6783   -1.8145    0.0000 N   0  0  0  0  0  0  0  0  0  0  0  0
    4.2746    2.5257    0.0000 N   0  0  0  0  0  0  0  0  0  0  0  0
    4.6783   -3.4240    0.0000 N   0  0  0  0  0  0  0  0  0  0  0  0
    5.2251    3.8245    0.0000 N   0  0  0  0  0  0  0  0  0  0  0  0
   12.8497   -5.1603    0.0000 C   0  0  0  0  0  0  0  0  0  0  0  0
   12.8497   -3.5423    0.0000 C   0  0  0  0  0  0  0  0  0  0  0  0
   12.8447    0.3998    0.0000 C   0  0  0  0  0  0  0  0  0  0  0  0
   11.8891   -0.9059    0.0000 C   0  0  0  0  0  0  0  0  0  0  0  0
   13.8007   -4.8513    0.0000 C   0  0  0  0  0  0  0  0  0  0  0  0
   13.8007   -3.8513    0.0000 C   0  0  0  0  0  0  0  0  0  0  0  0
   13.4297   -0.4113    0.0000 C   0  0  0  0  0  0  0  0  0  0  0  0
   12.8391   -1.2182    0.0000 C   0  0  0  0  0  0  0  0  0  0  0  0
   11.2619   -4.3513    0.0000 C   0  0  0  0  0  0  0  0  0  0  0  0
   11.0856    0.6846    0.0000 C   0  0  0  0  0  0  0  0  0  0  0  0
   10.7619   -3.4852    0.0000 C   0  0  0  0  0  0  0  0  0  0  0  0
   10.1706    0.2811    0.0000 C   0  0  0  0  0  0  0  0  0  0  0  0
    9.7619   -3.4852    0.0000 C   0  0  0  0  0  0  0  0  0  0  0  0
    9.3636    0.8716    0.0000 C   0  0  0  0  0  0  0  0  0  0  0  0
    8.2619   -2.6192    0.0000 C   0  0  0  0  0  0  0  0  0  0  0  0
    7.6417    1.0587    0.0000 C   0  0  0  0  0  0  0  0  0  0  0  0
    5.2619   -2.6192    0.0000 C   0  0  0  0  0  0  0  0  0  0  0  0
    5.2208    2.8304    0.0000 C   0  0  0  0  0  0  0  0  0  0  0  0
    6.2619   -2.6192    0.0000 C   0  0  0  0  0  0  0  0  0  0  0  0
    6.0278    2.2398    0.0000 C   0  0  0  0  0  0  0  0  0  0  0  0
    7.7619   -1.7532    0.0000 C   0  0  0  0  0  0  0  0  0  0  0  0
    7.7497    2.0528    0.0000 C   0  0  0  0  0  0  0  0  0  0  0  0
    7.7619   -3.4852    0.0000 C   0  0  0  0  0  0  0  0  0  0  0  0
    6.7268    0.6551    0.0000 C   0  0  0  0  0  0  0  0  0  0  0  0
    4.9889   -0.8640    0.0000 C   0  0  0  0  0  0  0  0  0  0  0  0
    3.9639    1.5752    0.0000 C   0  0  0  0  0  0  0  0  0  0  0  0
    3.7320   -2.1192    0.0000 C   0  0  0  0  0  0  0  0  0  0  0  0
    3.6910    3.3304    0.0000 C   0  0  0  0  0  0  0  0  0  0  0  0
    6.7619   -1.7532    0.0000 C   0  0  0  0  0  0  0  0  0  0  0  0
    6.9427    2.6434    0.0000 C   0  0  0  0  0  0  0  0  0  0  0  0
    6.7619   -3.4852    0.0000 C   0  0  0  0  0  0  0  0  0  0  0  0
    5.9198    1.2457    0.0000 C   0  0  0  0  0  0  0  0  0  0  0  0
    3.7320   -3.1192    0.0000 C   0  0  0  0  0  0  0  0  0  0  0  0
    4.2815    4.1374    0.0000 C   0  0  0  0  0  0  0  0  0  0  0  0
    4.3211   -0.1197    0.0000 C   0  0  0  0  0  0  0  0  0  0  0  0
    4.6318    0.8308    0.0000 C   0  0  0  0  0  0  0  0  0  0  0  0
    2.8660   -1.6192    0.0000 C   0  0  0  0  0  0  0  0  0  0  0  0
    2.6968    3.4384    0.0000 C   0  0  0  0  0  0  0  0  0  0  0  0
    2.8660   -3.6192    0.0000 C   0  0  0  0  0  0  0  0  0  0  0  0
    3.8780    5.0523    0.0000 C   0  0  0  0  0  0  0  0  0  0  0  0
    2.0000   -2.1192    0.0000 C   0  0  0  0  0  0  0  0  0  0  0  0
    2.2932    4.3533    0.0000 C   0  0  0  0  0  0  0  0  0  0  0  0
    2.0000   -3.1192    0.0000 C   0  0  0  0  0  0  0  0  0  0  0  0
    2.8838    5.1603    0.0000 C   0  0  0  0  0  0  0  0  0  0  0  0
   12.3127   -5.4703    0.0000 H   0  0  0  0  0  0  0  0  0  0  0  0
   13.1018   -5.7267    0.0000 H   0  0  0  0  0  0  0  0  0  0  0  0
   13.1018   -2.9759    0.0000 H   0  0  0  0  0  0  0  0  0  0  0  0
   12.3127   -3.2323    0.0000 H   0  0  0  0  0  0  0  0  0  0  0  0
   13.3827    0.7079    0.0000 H   0  0  0  0  0  0  0  0  0  0  0  0
   12.5945    0.9670    0.0000 H   0  0  0  0  0  0  0  0  0  0  0  0
   11.2727   -0.8390    0.0000 H   0  0  0  0  0  0  0  0  0  0  0  0
   11.7581   -1.5119    0.0000 H   0  0  0  0  0  0  0  0  0  0  0  0
   13.9296   -5.4577    0.0000 H   0  0  0  0  0  0  0  0  0  0  0  0
   14.4173   -4.7865    0.0000 H   0  0  0  0  0  0  0  0  0  0  0  0
   14.4173   -3.9161    0.0000 H   0  0  0  0  0  0  0  0  0  0  0  0
   13.9296   -3.2448    0.0000 H   0  0  0  0  0  0  0  0  0  0  0  0
   13.8890   -0.8277    0.0000 H   0  0  0  0  0  0  0  0  0  0  0  0
   13.8918    0.0020    0.0000 H   0  0  0  0  0  0  0  0  0  0  0  0
   12.5849   -1.7838    0.0000 H   0  0  0  0  0  0  0  0  0  0  0  0
   13.3749   -1.5301    0.0000 H   0  0  0  0  0  0  0  0  0  0  0  0
   10.6793   -4.5633    0.0000 H   0  0  0  0  0  0  0  0  0  0  0  0
   11.3695   -4.9619    0.0000 H   0  0  0  0  0  0  0  0  0  0  0  0
   11.5331    1.1138    0.0000 H   0  0  0  0  0  0  0  0  0  0  0  0
   10.7407    1.1998    0.0000 H   0  0  0  0  0  0  0  0  0  0  0  0
   11.3445   -3.2732    0.0000 H   0  0  0  0  0  0  0  0  0  0  0  0
   10.6542   -2.8747    0.0000 H   0  0  0  0  0  0  0  0  0  0  0  0
    9.7232   -0.1481    0.0000 H   0  0  0  0  0  0  0  0  0  0  0  0
   10.5155   -0.2341    0.0000 H   0  0  0  0  0  0  0  0  0  0  0  0
    9.1793   -3.6973    0.0000 H   0  0  0  0  0  0  0  0  0  0  0  0
    9.8695   -4.0958    0.0000 H   0  0  0  0  0  0  0  0  0  0  0  0
    9.8111    1.3008    0.0000 H   0  0  0  0  0  0  0  0  0  0  0  0
    9.0187    1.3868    0.0000 H   0  0  0  0  0  0  0  0  0  0  0  0
    8.0719   -1.2163    0.0000 H   0  0  0  0  0  0  0  0  0  0  0  0
    8.3170    2.3030    0.0000 H   0  0  0  0  0  0  0  0  0  0  0  0
    8.0719   -4.0222    0.0000 H   0  0  0  0  0  0  0  0  0  0  0  0
    6.6598    0.0387    0.0000 H   0  0  0  0  0  0  0  0  0  0  0  0
    5.5359   -1.1560    0.0000 H   0  0  0  0  0  0  0  0  0  0  0  0
    5.3715   -0.3761    0.0000 H   0  0  0  0  0  0  0  0  0  0  0  0
    3.4170    1.8672    0.0000 H   0  0  0  0  0  0  0  0  0  0  0  0
    3.5814    1.0872    0.0000 H   0  0  0  0  0  0  0  0  0  0  0  0
    6.4519   -1.2163    0.0000 H   0  0  0  0  0  0  0  0  0  0  0  0
    7.0097    3.2598    0.0000 H   0  0  0  0  0  0  0  0  0  0  0  0
    6.4519   -4.0222    0.0000 H   0  0  0  0  0  0  0  0  0  0  0  0
    5.3525    0.9954    0.0000 H   0  0  0  0  0  0  0  0  0  0  0  0
    3.7144   -0.2475    0.0000 H   0  0  0  0  0  0  0  0  0  0  0  0
    5.2384    0.9587    0.0000 H   0  0  0  0  0  0  0  0  0  0  0  0
    2.8660   -0.9992    0.0000 H   0  0  0  0  0  0  0  0  0  0  0  0
    2.3306    2.9380    0.0000 H   0  0  0  0  0  0  0  0  0  0  0  0
    2.8660   -4.2392    0.0000 H   0  0  0  0  0  0  0  0  0  0  0  0
    4.2441    5.5526    0.0000 H   0  0  0  0  0  0  0  0  0  0  0  0
    1.4631   -1.8092    0.0000 H   0  0  0  0  0  0  0  0  0  0  0  0
    1.6769    4.4203    0.0000 H   0  0  0  0  0  0  0  0  0  0  0  0
    1.4631   -3.4292    0.0000 H   0  0  0  0  0  0  0  0  0  0  0  0
    2.6336    5.7276    0.0000 H   0  0  0  0  0  0  0  0  0  0  0  0
  1 21  1  0  0  0  0
  1 23  1  0  0  0  0
  2 22  1  0  0  0  0
  2 24  1  0  0  0  0
  3  9  1  0  0  0  0
  3 10  1  0  0  0  0
  3 17  1  0  0  0  0
  4 11  1  0  0  0  0
  4 12  1  0  0  0  0
  4 18  1  0  0  0  0
  5 25  1  0  0  0  0
  5 33  1  0  0  0  0
  5 35  1  0  0  0  0
  6 26  1  0  0  0  0
  6 34  1  0  0  0  0
  6 36  1  0  0  0  0
  7 25  2  0  0  0  0
  7 41  1  0  0  0  0
  8 26  2  0  0  0  0
  8 42  1  0  0  0  0
  9 13  1  0  0  0  0
  9 53  1  0  0  0  0
  9 54  1  0  0  0  0
 10 14  1  0  0  0  0
 10 55  1  0  0  0  0
 10 56  1  0  0  0  0
 11 15  1  0  0  0  0
 11 57  1  0  0  0  0
 11 58  1  0  0  0  0
 12 16  1  0  0  0  0
 12 59  1  0  0  0  0
 12 60  1  0  0  0  0
 13 14  1  0  0  0  0
 13 61  1  0  0  0  0
 13 62  1  0  0  0  0
 14 63  1  0  0  0  0
 14 64  1  0  0  0  0
 15 16  1  0  0  0  0
 15 65  1  0  0  0  0
 15 66  1  0  0  0  0
 16 67  1  0  0  0  0
 16 68  1  0  0  0  0
 17 19  1  0  0  0  0
 17 69  1  0  0  0  0
 17 70  1  0  0  0  0
 18 20  1  0  0  0  0
 18 71  1  0  0  0  0
 18 72  1  0  0  0  0
 19 21  1  0  0  0  0
 19 73  1  0  0  0  0
 19 74  1  0  0  0  0
 20 22  1  0  0  0  0
 20 75  1  0  0  0  0
 20 76  1  0  0  0  0
 21 77  1  0  0  0  0
 21 78  1  0  0  0  0
 22 79  1  0  0  0  0
 22 80  1  0  0  0  0
 23 29  2  0  0  0  0
 23 31  1  0  0  0  0
 24 30  2  0  0  0  0
 24 32  1  0  0  0  0
 25 27  1  0  0  0  0
 26 28  1  0  0  0  0
 27 37  2  0  0  0  0
 27 39  1  0  0  0  0
 28 38  2  0  0  0  0
 28 40  1  0  0  0  0
 29 37  1  0  0  0  0
 29 81  1  0  0  0  0
 30 38  1  0  0  0  0
 30 82  1  0  0  0  0
 31 39  2  0  0  0  0
 31 83  1  0  0  0  0
 32 40  2  0  0  0  0
 32 84  1  0  0  0  0
 33 43  1  0  0  0  0
 33 85  1  0  0  0  0
 33 86  1  0  0  0  0
 34 44  1  0  0  0  0
 34 87  1  0  0  0  0
 34 88  1  0  0  0  0
 35 41  1  0  0  0  0
 35 45  2  0  0  0  0
 36 42  1  0  0  0  0
 36 46  2  0  0  0  0
 37 89  1  0  0  0  0
 38 90  1  0  0  0  0
 39 91  1  0  0  0  0
 40 92  1  0  0  0  0
 41 47  2  0  0  0  0
 42 48  2  0  0  0  0
 43 44  2  0  0  0  0
 43 93  1  0  0  0  0
 44 94  1  0  0  0  0
 45 49  1  0  0  0  0
 45 95  1  0  0  0  0
 46 50  1  0  0  0  0
 46 96  1  0  0  0  0
 47 51  1  0  0  0  0
 47 97  1  0  0  0  0
 48 52  1  0  0  0  0
 48 98  1  0  0  0  0
 49 51  2  0  0  0  0
 49 99  1  0  0  0  0
 50 52  2  0  0  0  0
 50100  1  0  0  0  0
 51101  1  0  0  0  0
 52102  1  0  0  0  0
M  END
> <PUBCHEM_COMPOUND_CID>
15291583

> <PUBCHEM_COMPOUND_CANONICALIZED>
1

> <PUBCHEM_CACTVS_COMPLEXITY>
983

> <PUBCHEM_CACTVS_HBOND_ACCEPTOR>
6

> <PUBCHEM_CACTVS_HBOND_DONOR>
0

> <PUBCHEM_CACTVS_ROTATABLE_BOND>
16

> <PUBCHEM_CACTVS_SUBSKEYS>
AAADcfB/sAAAAAAAAAAAAAAAAAAAAWLFiwAwYMGAAAAAAFgB/gAAHgAAAAAADAzhnwYx1rcMFACgAyZiZACCiC0hMqAJ2CA+fJiMbqLEuZuWOCjuwBPI6CeQ0AIOIAAAAAAAACBAAAAAAAAAQAAAAAAAAA==

> <PUBCHEM_IUPAC_OPENEYE_NAME>
2-[4-(3-pyrrolidin-1-ylpropoxy)phenyl]-1-[(E)-4-[2-[4-(3-pyrrolidin-1-ylpropoxy)phenyl]benzimidazol-1-yl]but-2-enyl]benzimidazole

> <PUBCHEM_IUPAC_CAS_NAME>
2-[4-[3-(1-pyrrolidinyl)propoxy]phenyl]-1-[(E)-4-[2-[4-[3-(1-pyrrolidinyl)propoxy]phenyl]-1-benzimidazolyl]but-2-enyl]benzimidazole

> <PUBCHEM_IUPAC_NAME_MARKUP>
2-[4-(3-pyrrolidin-1-ylpropoxy)phenyl]-1-[(<I>E</I>)-4-[2-[4-(3-pyrrolidin-1-ylpropoxy)phenyl]benzimidazol-1-yl]but-2-enyl]benzimidazole

> <PUBCHEM_IUPAC_NAME>
2-[4-(3-pyrrolidin-1-ylpropoxy)phenyl]-1-[(E)-4-[2-[4-(3-pyrrolidin-1-ylpropoxy)phenyl]benzimidazol-1-yl]but-2-enyl]benzimidazole

> <PUBCHEM_IUPAC_SYSTEMATIC_NAME>
2-[4-(3-pyrrolidin-1-ylpropoxy)phenyl]-1-[(E)-4-[2-[4-(3-pyrrolidin-1-ylpropoxy)phenyl]benzimidazol-1-yl]but-2-enyl]benzimidazole

> <PUBCHEM_IUPAC_TRADITIONAL_NAME>
2-[4-(3-pyrrolidinopropoxy)phenyl]-1-[(E)-4-[2-[4-(3-pyrrolidinopropoxy)phenyl]benzimidazol-1-yl]but-2-enyl]benzimidazole

> <PUBCHEM_IUPAC_INCHI>
InChI=1S/C44H50N6O2/c1-3-15-41-39(13-1)45-43(35-17-21-37(22-18-35)51-33-11-29-47-25-5-6-26-47)49(41)31-9-10-32-50-42-16-4-2-14-40(42)46-44(50)36-19-23-38(24-20-36)52-34-12-30-48-27-7-8-28-48/h1-4,9-10,13-24H,5-8,11-12,25-34H2/b10-9+

> <PUBCHEM_IUPAC_INCHIKEY>
APMOACCZLSVUQN-MDZDMXLPSA-N

> <PUBCHEM_XLOGP3_AA>
8.2

> <PUBCHEM_EXACT_MASS>
694.39952486

> <PUBCHEM_MOLECULAR_FORMULA>
C44H50N6O2

> <PUBCHEM_MOLECULAR_WEIGHT>
694.9

> <PUBCHEM_OPENEYE_CAN_SMILES>
C1CCN(C1)CCCOC2=CC=C(C=C2)C3=NC4=CC=CC=C4N3CC=CCN5C6=CC=CC=C6N=C5C7=CC=C(C=C7)OCCCN8CCCC8

> <PUBCHEM_OPENEYE_ISO_SMILES>
C1CCN(C1)CCCOC2=CC=C(C=C2)C3=NC4=CC=CC=C4N3C/C=C/CN5C6=CC=CC=C6N=C5C7=CC=C(C=C7)OCCCN8CCCC8

> <PUBCHEM_CACTVS_TPSA>
60.6

> <PUBCHEM_MONOISOTOPIC_WEIGHT>
694.39952486

> <PUBCHEM_TOTAL_CHARGE>
0

> <PUBCHEM_HEAVY_ATOM_COUNT>
52

> <PUBCHEM_ATOM_DEF_STEREO_COUNT>
0

> <PUBCHEM_ATOM_UDEF_STEREO_COUNT>
0

> <PUBCHEM_BOND_DEF_STEREO_COUNT>
1

> <PUBCHEM_BOND_UDEF_STEREO_COUNT>
0

> <PUBCHEM_ISOTOPIC_ATOM_COUNT>
0

> <PUBCHEM_COMPONENT_COUNT>
1

> <PUBCHEM_CACTVS_TAUTO_COUNT>
-1

> <PUBCHEM_COORDINATE_TYPE>
1
5
255

> <PUBCHEM_BONDANNOTATIONS>
23  29  8
23  31  8
24  30  8
24  32  8
27  37  8
27  39  8
28  38  8
28  40  8
29  37  8
30  38  8
31  39  8
32  40  8
35  41  8
35  45  8
36  42  8
36  46  8
41  47  8
42  48  8
45  49  8
46  50  8
47  51  8
48  52  8
49  51  8
5  25  8
5  35  8
50  52  8
6  26  8
6  36  8
7  25  8
7  41  8
8  26  8
8  42  8

$$$$
