57390118
  -OEChem-09292322322D

145150  0     0  0  0  0  0  0999 V2000
   22.7846   13.7500    0.0000 O   0  0  0  0  0  0  0  0  0  0  0  0
    2.8660  -14.7500    0.0000 O   0  0  0  0  0  0  0  0  0  0  0  0
   17.5885    8.7500    0.0000 O   0  0  0  0  0  0  0  0  0  0  0  0
    8.0622   -7.7500    0.0000 O   0  0  0  0  0  0  0  0  0  0  0  0
   13.2583    6.2500    0.0000 O   0  0  0  0  0  0  0  0  0  0  0  0
    8.0622   -2.7500    0.0000 O   0  0  0  0  0  0  0  0  0  0  0  0
   11.5263    4.2500    0.0000 O   0  0  0  0  0  0  0  0  0  0  0  0
    8.9282   -0.2500    0.0000 O   0  0  0  0  0  0  0  0  0  0  0  0
   10.6603    1.7500    0.0000 O   0  0  0  0  0  0  0  0  0  0  0  0
   19.3205   13.7500    0.0000 N   0  0  0  0  0  0  0  0  0  0  0  0
    4.5981  -11.7500    0.0000 N   0  0  0  0  0  0  0  0  0  0  0  0
   21.0526   14.7500    0.0000 N   0  0  0  0  0  0  0  0  0  0  0  0
    4.5981  -13.7500    0.0000 N   0  0  0  0  0  0  0  0  0  0  0  0
   16.7224   10.2500    0.0000 N   0  0  0  0  0  0  0  0  0  0  0  0
    6.3301   -7.7500    0.0000 N   0  0  0  0  0  0  0  0  0  0  0  0
   20.1865   13.2500    0.0000 C   0  0  0  0  0  0  0  0  0  0  0  0
   19.3205   14.7500    0.0000 C   0  0  0  0  0  0  0  0  0  0  0  0
    5.4641  -12.2500    0.0000 C   0  0  0  0  0  0  0  0  0  0  0  0
    3.7320  -12.2500    0.0000 C   0  0  0  0  0  0  0  0  0  0  0  0
   21.0526   13.7500    0.0000 C   0  0  0  0  0  0  0  0  0  0  0  0
   20.1865   15.2500    0.0000 C   0  0  0  0  0  0  0  0  0  0  0  0
    5.4641  -13.2500    0.0000 C   0  0  0  0  0  0  0  0  0  0  0  0
    3.7320  -13.2500    0.0000 C   0  0  0  0  0  0  0  0  0  0  0  0
   18.4545   13.2500    0.0000 C   0  0  0  0  0  0  0  0  0  0  0  0
    4.5981  -10.7500    0.0000 C   0  0  0  0  0  0  0  0  0  0  0  0
   18.4545   12.2500    0.0000 C   0  0  0  0  0  0  0  0  0  0  0  0
    5.4641  -10.2500    0.0000 C   0  0  0  0  0  0  0  0  0  0  0  0
   21.9186   15.2500    0.0000 C   0  0  0  0  0  0  0  0  0  0  0  0
    4.5981  -14.7500    0.0000 C   0  0  0  0  0  0  0  0  0  0  0  0
   17.5885   11.7500    0.0000 C   0  0  0  0  0  0  0  0  0  0  0  0
    5.4641   -9.2500    0.0000 C   0  0  0  0  0  0  0  0  0  0  0  0
   17.5885   10.7500    0.0000 C   0  0  0  0  0  0  0  0  0  0  0  0
    6.3301   -8.7500    0.0000 C   0  0  0  0  0  0  0  0  0  0  0  0
   22.7846   14.7500    0.0000 C   0  0  0  0  0  0  0  0  0  0  0  0
    3.7320  -15.2500    0.0000 C   0  0  0  0  0  0  0  0  0  0  0  0
   21.9186   16.2500    0.0000 C   0  0  0  0  0  0  0  0  0  0  0  0
    5.4641  -15.2500    0.0000 C   0  0  0  0  0  0  0  0  0  0  0  0
   23.6506   15.2500    0.0000 C   0  0  0  0  0  0  0  0  0  0  0  0
    3.7320  -16.2500    0.0000 C   0  0  0  0  0  0  0  0  0  0  0  0
   22.7846   16.7500    0.0000 C   0  0  0  0  0  0  0  0  0  0  0  0
    5.4641  -16.2500    0.0000 C   0  0  0  0  0  0  0  0  0  0  0  0
   23.6506   16.2500    0.0000 C   0  0  0  0  0  0  0  0  0  0  0  0
    4.5981  -16.7500    0.0000 C   0  0  0  0  0  0  0  0  0  0  0  0
   16.7224    9.2500    0.0000 C   0  0  0  0  0  0  0  0  0  0  0  0
    7.1962   -7.2500    0.0000 C   0  0  0  0  0  0  0  0  0  0  0  0
   23.6506   13.2500    0.0000 C   0  0  0  0  0  0  0  0  0  0  0  0
    2.0000  -15.2500    0.0000 C   0  0  0  0  0  0  0  0  0  0  0  0
   15.8564    8.7500    0.0000 C   0  0  0  0  0  0  0  0  0  0  0  0
    7.1962   -6.2500    0.0000 C   0  0  0  0  0  0  0  0  0  0  0  0
   14.9904    9.2500    0.0000 C   0  0  0  0  0  0  0  0  0  0  0  0
    6.3301   -5.7500    0.0000 C   0  0  0  0  0  0  0  0  0  0  0  0
   15.8564    7.7500    0.0000 C   0  0  0  0  0  0  0  0  0  0  0  0
    8.0622   -5.7500    0.0000 C   0  0  0  0  0  0  0  0  0  0  0  0
   14.1244    8.7500    0.0000 C   0  0  0  0  0  0  0  0  0  0  0  0
    6.3301   -4.7500    0.0000 C   0  0  0  0  0  0  0  0  0  0  0  0
   14.9904    7.2500    0.0000 C   0  0  0  0  0  0  0  0  0  0  0  0
    8.0622   -4.7500    0.0000 C   0  0  0  0  0  0  0  0  0  0  0  0
   14.1244    7.7500    0.0000 C   0  0  0  0  0  0  0  0  0  0  0  0
    7.1962   -4.2500    0.0000 C   0  0  0  0  0  0  0  0  0  0  0  0
   13.2583    7.2500    0.0000 C   0  0  0  0  0  0  0  0  0  0  0  0
    7.1962   -3.2500    0.0000 C   0  0  0  0  0  0  0  0  0  0  0  0
   12.3923    5.7500    0.0000 C   0  0  0  0  0  0  0  0  0  0  0  0
    8.0622   -1.7500    0.0000 C   0  0  0  0  0  0  0  0  0  0  0  0
   12.3923    4.7500    0.0000 C   0  0  0  0  0  0  0  0  0  0  0  0
    8.9282   -1.2500    0.0000 C   0  0  0  0  0  0  0  0  0  0  0  0
   11.5263    3.2500    0.0000 C   0  0  0  0  0  0  0  0  0  0  0  0
    9.7942    0.2500    0.0000 C   0  0  0  0  0  0  0  0  0  0  0  0
   10.6603    2.7500    0.0000 C   0  0  0  0  0  0  0  0  0  0  0  0
    9.7942    1.2500    0.0000 C   0  0  0  0  0  0  0  0  0  0  0  0
   19.7880   12.7751    0.0000 H   0  0  0  0  0  0  0  0  0  0  0  0
   20.5851   12.7751    0.0000 H   0  0  0  0  0  0  0  0  0  0  0  0
   19.1085   15.3326    0.0000 H   0  0  0  0  0  0  0  0  0  0  0  0
   18.7099   14.6423    0.0000 H   0  0  0  0  0  0  0  0  0  0  0  0
    6.0747  -12.3577    0.0000 H   0  0  0  0  0  0  0  0  0  0  0  0
    5.6762  -11.6674    0.0000 H   0  0  0  0  0  0  0  0  0  0  0  0
    3.5200  -11.6674    0.0000 H   0  0  0  0  0  0  0  0  0  0  0  0
    3.1215  -12.3577    0.0000 H   0  0  0  0  0  0  0  0  0  0  0  0
   21.2646   13.1674    0.0000 H   0  0  0  0  0  0  0  0  0  0  0  0
   21.6631   13.8577    0.0000 H   0  0  0  0  0  0  0  0  0  0  0  0
   20.5851   15.7249    0.0000 H   0  0  0  0  0  0  0  0  0  0  0  0
   19.7880   15.7249    0.0000 H   0  0  0  0  0  0  0  0  0  0  0  0
    5.6762  -13.8326    0.0000 H   0  0  0  0  0  0  0  0  0  0  0  0
    6.0747  -13.1423    0.0000 H   0  0  0  0  0  0  0  0  0  0  0  0
    3.1215  -13.1423    0.0000 H   0  0  0  0  0  0  0  0  0  0  0  0
    3.5200  -13.8326    0.0000 H   0  0  0  0  0  0  0  0  0  0  0  0
   18.2424   13.8326    0.0000 H   0  0  0  0  0  0  0  0  0  0  0  0
   17.8439   13.1423    0.0000 H   0  0  0  0  0  0  0  0  0  0  0  0
    4.3860  -10.1674    0.0000 H   0  0  0  0  0  0  0  0  0  0  0  0
    3.9875  -10.8577    0.0000 H   0  0  0  0  0  0  0  0  0  0  0  0
   18.6665   11.6674    0.0000 H   0  0  0  0  0  0  0  0  0  0  0  0
   19.0651   12.3577    0.0000 H   0  0  0  0  0  0  0  0  0  0  0  0
    5.6762  -10.8326    0.0000 H   0  0  0  0  0  0  0  0  0  0  0  0
    6.0747  -10.1423    0.0000 H   0  0  0  0  0  0  0  0  0  0  0  0
   17.3764   12.3326    0.0000 H   0  0  0  0  0  0  0  0  0  0  0  0
   16.9779   11.6423    0.0000 H   0  0  0  0  0  0  0  0  0  0  0  0
    5.2520   -8.6674    0.0000 H   0  0  0  0  0  0  0  0  0  0  0  0
    4.8535   -9.3577    0.0000 H   0  0  0  0  0  0  0  0  0  0  0  0
   17.8005   10.1674    0.0000 H   0  0  0  0  0  0  0  0  0  0  0  0
   18.1990   10.8577    0.0000 H   0  0  0  0  0  0  0  0  0  0  0  0
    6.5422   -9.3326    0.0000 H   0  0  0  0  0  0  0  0  0  0  0  0
    6.9407   -8.6423    0.0000 H   0  0  0  0  0  0  0  0  0  0  0  0
   21.3816   16.5600    0.0000 H   0  0  0  0  0  0  0  0  0  0  0  0
    6.0010  -14.9400    0.0000 H   0  0  0  0  0  0  0  0  0  0  0  0
   24.1876   14.9400    0.0000 H   0  0  0  0  0  0  0  0  0  0  0  0
    3.1951  -16.5600    0.0000 H   0  0  0  0  0  0  0  0  0  0  0  0
   22.7846   17.3700    0.0000 H   0  0  0  0  0  0  0  0  0  0  0  0
    6.0010  -16.5600    0.0000 H   0  0  0  0  0  0  0  0  0  0  0  0
   16.1855   10.5600    0.0000 H   0  0  0  0  0  0  0  0  0  0  0  0
    5.7932   -7.4400    0.0000 H   0  0  0  0  0  0  0  0  0  0  0  0
   24.1876   16.5600    0.0000 H   0  0  0  0  0  0  0  0  0  0  0  0
    4.5981  -17.3700    0.0000 H   0  0  0  0  0  0  0  0  0  0  0  0
   23.3406   12.7131    0.0000 H   0  0  0  0  0  0  0  0  0  0  0  0
   24.1876   12.9400    0.0000 H   0  0  0  0  0  0  0  0  0  0  0  0
   23.9606   13.7869    0.0000 H   0  0  0  0  0  0  0  0  0  0  0  0
    1.6900  -14.7131    0.0000 H   0  0  0  0  0  0  0  0  0  0  0  0
    1.4631  -15.5600    0.0000 H   0  0  0  0  0  0  0  0  0  0  0  0
    2.3100  -15.7869    0.0000 H   0  0  0  0  0  0  0  0  0  0  0  0
   14.9904    9.8700    0.0000 H   0  0  0  0  0  0  0  0  0  0  0  0
    5.7932   -6.0600    0.0000 H   0  0  0  0  0  0  0  0  0  0  0  0
   16.3933    7.4400    0.0000 H   0  0  0  0  0  0  0  0  0  0  0  0
    8.5991   -6.0600    0.0000 H   0  0  0  0  0  0  0  0  0  0  0  0
   13.5874    9.0600    0.0000 H   0  0  0  0  0  0  0  0  0  0  0  0
    5.7932   -4.4400    0.0000 H   0  0  0  0  0  0  0  0  0  0  0  0
   14.9904    6.6300    0.0000 H   0  0  0  0  0  0  0  0  0  0  0  0
    8.5991   -4.4400    0.0000 H   0  0  0  0  0  0  0  0  0  0  0  0
   13.0463    7.8326    0.0000 H   0  0  0  0  0  0  0  0  0  0  0  0
   12.6477    7.1423    0.0000 H   0  0  0  0  0  0  0  0  0  0  0  0
    6.9841   -2.6674    0.0000 H   0  0  0  0  0  0  0  0  0  0  0  0
    6.5856   -3.3577    0.0000 H   0  0  0  0  0  0  0  0  0  0  0  0
   12.1803    6.3326    0.0000 H   0  0  0  0  0  0  0  0  0  0  0  0
   11.7817    5.6423    0.0000 H   0  0  0  0  0  0  0  0  0  0  0  0
    7.8501   -1.1674    0.0000 H   0  0  0  0  0  0  0  0  0  0  0  0
    7.4516   -1.8577    0.0000 H   0  0  0  0  0  0  0  0  0  0  0  0
   12.6044    4.1674    0.0000 H   0  0  0  0  0  0  0  0  0  0  0  0
   13.0029    4.8577    0.0000 H   0  0  0  0  0  0  0  0  0  0  0  0
    9.1403   -1.8326    0.0000 H   0  0  0  0  0  0  0  0  0  0  0  0
    9.5388   -1.1423    0.0000 H   0  0  0  0  0  0  0  0  0  0  0  0
   11.7383    2.6674    0.0000 H   0  0  0  0  0  0  0  0  0  0  0  0
   12.1369    3.3577    0.0000 H   0  0  0  0  0  0  0  0  0  0  0  0
   10.0063   -0.3326    0.0000 H   0  0  0  0  0  0  0  0  0  0  0  0
   10.4048    0.3577    0.0000 H   0  0  0  0  0  0  0  0  0  0  0  0
   10.4482    3.3326    0.0000 H   0  0  0  0  0  0  0  0  0  0  0  0
   10.0497    2.6423    0.0000 H   0  0  0  0  0  0  0  0  0  0  0  0
    9.5822    1.8326    0.0000 H   0  0  0  0  0  0  0  0  0  0  0  0
    9.1836    1.1423    0.0000 H   0  0  0  0  0  0  0  0  0  0  0  0
  1 34  1  0  0  0  0
  1 46  1  0  0  0  0
  2 35  1  0  0  0  0
  2 47  1  0  0  0  0
  3 44  2  0  0  0  0
  4 45  2  0  0  0  0
  5 60  1  0  0  0  0
  5 62  1  0  0  0  0
  6 61  1  0  0  0  0
  6 63  1  0  0  0  0
  7 64  1  0  0  0  0
  7 66  1  0  0  0  0
  8 65  1  0  0  0  0
  8 67  1  0  0  0  0
  9 68  1  0  0  0  0
  9 69  1  0  0  0  0
 10 16  1  0  0  0  0
 10 17  1  0  0  0  0
 10 24  1  0  0  0  0
 11 18  1  0  0  0  0
 11 19  1  0  0  0  0
 11 25  1  0  0  0  0
 12 20  1  0  0  0  0
 12 21  1  0  0  0  0
 12 28  1  0  0  0  0
 13 22  1  0  0  0  0
 13 23  1  0  0  0  0
 13 29  1  0  0  0  0
 14 32  1  0  0  0  0
 14 44  1  0  0  0  0
 14108  1  0  0  0  0
 15 33  1  0  0  0  0
 15 45  1  0  0  0  0
 15109  1  0  0  0  0
 16 20  1  0  0  0  0
 16 70  1  0  0  0  0
 16 71  1  0  0  0  0
 17 21  1  0  0  0  0
 17 72  1  0  0  0  0
 17 73  1  0  0  0  0
 18 22  1  0  0  0  0
 18 74  1  0  0  0  0
 18 75  1  0  0  0  0
 19 23  1  0  0  0  0
 19 76  1  0  0  0  0
 19 77  1  0  0  0  0
 20 78  1  0  0  0  0
 20 79  1  0  0  0  0
 21 80  1  0  0  0  0
 21 81  1  0  0  0  0
 22 82  1  0  0  0  0
 22 83  1  0  0  0  0
 23 84  1  0  0  0  0
 23 85  1  0  0  0  0
 24 26  1  0  0  0  0
 24 86  1  0  0  0  0
 24 87  1  0  0  0  0
 25 27  1  0  0  0  0
 25 88  1  0  0  0  0
 25 89  1  0  0  0  0
 26 30  1  0  0  0  0
 26 90  1  0  0  0  0
 26 91  1  0  0  0  0
 27 31  1  0  0  0  0
 27 92  1  0  0  0  0
 27 93  1  0  0  0  0
 28 34  1  0  0  0  0
 28 36  2  0  0  0  0
 29 35  1  0  0  0  0
 29 37  2  0  0  0  0
 30 32  1  0  0  0  0
 30 94  1  0  0  0  0
 30 95  1  0  0  0  0
 31 33  1  0  0  0  0
 31 96  1  0  0  0  0
 31 97  1  0  0  0  0
 32 98  1  0  0  0  0
 32 99  1  0  0  0  0
 33100  1  0  0  0  0
 33101  1  0  0  0  0
 34 38  2  0  0  0  0
 35 39  2  0  0  0  0
 36 40  1  0  0  0  0
 36102  1  0  0  0  0
 37 41  1  0  0  0  0
 37103  1  0  0  0  0
 38 42  1  0  0  0  0
 38104  1  0  0  0  0
 39 43  1  0  0  0  0
 39105  1  0  0  0  0
 40 42  2  0  0  0  0
 40106  1  0  0  0  0
 41 43  2  0  0  0  0
 41107  1  0  0  0  0
 42110  1  0  0  0  0
 43111  1  0  0  0  0
 44 48  1  0  0  0  0
 45 49  1  0  0  0  0
 46112  1  0  0  0  0
 46113  1  0  0  0  0
 46114  1  0  0  0  0
 47115  1  0  0  0  0
 47116  1  0  0  0  0
 47117  1  0  0  0  0
 48 50  2  0  0  0  0
 48 52  1  0  0  0  0
 49 51  2  0  0  0  0
 49 53  1  0  0  0  0
 50 54  1  0  0  0  0
 50118  1  0  0  0  0
 51 55  1  0  0  0  0
 51119  1  0  0  0  0
 52 56  2  0  0  0  0
 52120  1  0  0  0  0
 53 57  2  0  0  0  0
 53121  1  0  0  0  0
 54 58  2  0  0  0  0
 54122  1  0  0  0  0
 55 59  2  0  0  0  0
 55123  1  0  0  0  0
 56 58  1  0  0  0  0
 56124  1  0  0  0  0
 57 59  1  0  0  0  0
 57125  1  0  0  0  0
 58 60  1  0  0  0  0
 59 61  1  0  0  0  0
 60126  1  0  0  0  0
 60127  1  0  0  0  0
 61128  1  0  0  0  0
 61129  1  0  0  0  0
 62 64  1  0  0  0  0
 62130  1  0  0  0  0
 62131  1  0  0  0  0
 63 65  1  0  0  0  0
 63132  1  0  0  0  0
 63133  1  0  0  0  0
 64134  1  0  0  0  0
 64135  1  0  0  0  0
 65136  1  0  0  0  0
 65137  1  0  0  0  0
 66 68  1  0  0  0  0
 66138  1  0  0  0  0
 66139  1  0  0  0  0
 67 69  1  0  0  0  0
 67140  1  0  0  0  0
 67141  1  0  0  0  0
 68142  1  0  0  0  0
 68143  1  0  0  0  0
 69144  1  0  0  0  0
 69145  1  0  0  0  0
M  END
> <PUBCHEM_COMPOUND_CID>
57390118

> <PUBCHEM_COMPOUND_CANONICALIZED>
1

> <PUBCHEM_CACTVS_COMPLEXITY>
1240

> <PUBCHEM_CACTVS_HBOND_ACCEPTOR>
13

> <PUBCHEM_CACTVS_HBOND_DONOR>
2

> <PUBCHEM_CACTVS_ROTATABLE_BOND>
32

> <PUBCHEM_CACTVS_SUBSKEYS>
AAADcfB/vAAAAAAAAAAAAAAAAAAAAAAAAAA8eMGCAAAAAAABVAAAHgAQAAAADAzhmAYyxoPABACIAiVSUACCCAAlIgAIiIEPbMgPZjLEtZuXMShk1hHa6YeYyDCOQAAAAAAAEACAAAAAAAAgAAAAAAAAAA==

> <PUBCHEM_IUPAC_OPENEYE_NAME>
N-[4-[4-(2-methoxyphenyl)piperazin-1-yl]butyl]-4-[2-[2-[2-[2-[[4-[4-[4-(2-methoxyphenyl)piperazin-1-yl]butylcarbamoyl]phenyl]methoxy]ethoxy]ethoxy]ethoxy]ethoxymethyl]benzamide

> <PUBCHEM_IUPAC_CAS_NAME>
N-[4-[4-(2-methoxyphenyl)-1-piperazinyl]butyl]-4-[2-[2-[2-[2-[[4-[[4-[4-(2-methoxyphenyl)-1-piperazinyl]butylamino]-oxomethyl]phenyl]methoxy]ethoxy]ethoxy]ethoxy]ethoxymethyl]benzamide

> <PUBCHEM_IUPAC_NAME_MARKUP>
<I>N</I>-[4-[4-(2-methoxyphenyl)piperazin-1-yl]butyl]-4-[2-[2-[2-[2-[[4-[4-[4-(2-methoxyphenyl)piperazin-1-yl]butylcarbamoyl]phenyl]methoxy]ethoxy]ethoxy]ethoxy]ethoxymethyl]benzamide

> <PUBCHEM_IUPAC_NAME>
N-[4-[4-(2-methoxyphenyl)piperazin-1-yl]butyl]-4-[2-[2-[2-[2-[[4-[4-[4-(2-methoxyphenyl)piperazin-1-yl]butylcarbamoyl]phenyl]methoxy]ethoxy]ethoxy]ethoxy]ethoxymethyl]benzamide

> <PUBCHEM_IUPAC_SYSTEMATIC_NAME>
N-[4-[4-(2-methoxyphenyl)piperazin-1-yl]butyl]-4-[2-[2-[2-[2-[[4-[4-[4-(2-methoxyphenyl)piperazin-1-yl]butylcarbamoyl]phenyl]methoxy]ethoxy]ethoxy]ethoxy]ethoxymethyl]benzamide

> <PUBCHEM_IUPAC_TRADITIONAL_NAME>
N-[4-[4-(2-methoxyphenyl)piperazino]butyl]-4-[2-[2-[2-[2-[4-[4-[4-(2-methoxyphenyl)piperazino]butylcarbamoyl]benzyl]oxyethoxy]ethoxy]ethoxy]ethoxymethyl]benzamide

> <PUBCHEM_IUPAC_INCHI>
InChI=1S/C54H76N6O9/c1-63-51-13-5-3-11-49(51)59-31-27-57(28-32-59)25-9-7-23-55-53(61)47-19-15-45(16-20-47)43-68-41-39-66-37-35-65-36-38-67-40-42-69-44-46-17-21-48(22-18-46)54(62)56-24-8-10-26-58-29-33-60(34-30-58)50-12-4-6-14-52(50)64-2/h3-6,11-22H,7-10,23-44H2,1-2H3,(H,55,61)(H,56,62)

> <PUBCHEM_IUPAC_INCHIKEY>
BYUVKVSQQDHYKB-UHFFFAOYSA-N

> <PUBCHEM_XLOGP3_AA>
5.7

> <PUBCHEM_EXACT_MASS>
952.56737802

> <PUBCHEM_MOLECULAR_FORMULA>
C54H76N6O9

> <PUBCHEM_MOLECULAR_WEIGHT>
953.2

> <PUBCHEM_OPENEYE_CAN_SMILES>
COC1=CC=CC=C1N2CCN(CC2)CCCCNC(=O)C3=CC=C(C=C3)COCCOCCOCCOCCOCC4=CC=C(C=C4)C(=O)NCCCCN5CCN(CC5)C6=CC=CC=C6OC

> <PUBCHEM_OPENEYE_ISO_SMILES>
COC1=CC=CC=C1N2CCN(CC2)CCCCNC(=O)C3=CC=C(C=C3)COCCOCCOCCOCCOCC4=CC=C(C=C4)C(=O)NCCCCN5CCN(CC5)C6=CC=CC=C6OC

> <PUBCHEM_CACTVS_TPSA>
136

> <PUBCHEM_MONOISOTOPIC_WEIGHT>
952.56737802

> <PUBCHEM_TOTAL_CHARGE>
0

> <PUBCHEM_HEAVY_ATOM_COUNT>
69

> <PUBCHEM_ATOM_DEF_STEREO_COUNT>
0

> <PUBCHEM_ATOM_UDEF_STEREO_COUNT>
0

> <PUBCHEM_BOND_DEF_STEREO_COUNT>
0

> <PUBCHEM_BOND_UDEF_STEREO_COUNT>
0

> <PUBCHEM_ISOTOPIC_ATOM_COUNT>
0

> <PUBCHEM_COMPONENT_COUNT>
1

> <PUBCHEM_CACTVS_TAUTO_COUNT>
-1

> <PUBCHEM_COORDINATE_TYPE>
1
5
255

> <PUBCHEM_BONDANNOTATIONS>
28  34  8
28  36  8
29  35  8
29  37  8
34  38  8
35  39  8
36  40  8
37  41  8
38  42  8
39  43  8
40  42  8
41  43  8
48  50  8
48  52  8
49  51  8
49  53  8
50  54  8
51  55  8
52  56  8
53  57  8
54  58  8
55  59  8
56  58  8
57  59  8

$$$$
