162644502
  -OEChem-09292322462D

 50 53  0     0  0  0  0  0  0999 V2000
    3.8374    3.9388    0.0000 O   0  0  0  0  0  0  0  0  0  0  0  0
    4.1244   -0.1585    0.0000 O   0  0  0  0  0  0  0  0  0  0  0  0
    5.0550    2.3521    0.0000 N   0  0  0  0  0  0  0  0  0  0  0  0
    5.5071   -1.0823    0.0000 N   0  0  0  0  0  0  0  0  0  0  0  0
    5.6637    1.5588    0.0000 C   0  0  0  0  0  0  0  0  0  0  0  0
    5.2810    0.6349    0.0000 C   0  0  0  0  0  0  0  0  0  0  0  0
    4.0635    2.2216    0.0000 C   0  0  0  0  0  0  0  0  0  0  0  0
    5.4376    3.2760    0.0000 C   0  0  0  0  0  0  0  0  0  0  0  0
    5.8898   -0.1585    0.0000 C   0  0  0  0  0  0  0  0  0  0  0  0
    3.4548    3.0149    0.0000 C   0  0  0  0  0  0  0  0  0  0  0  0
    4.8289    4.0694    0.0000 C   0  0  0  0  0  0  0  0  0  0  0  0
    6.2142   -1.7894    0.0000 C   0  0  0  0  0  0  0  0  0  0  0  0
    4.5071   -1.0823    0.0000 C   0  0  0  0  0  0  0  0  0  0  0  0
    6.2142   -2.7894    0.0000 C   0  0  0  0  0  0  0  0  0  0  0  0
    3.8000   -1.7894    0.0000 C   0  0  0  0  0  0  0  0  0  0  0  0
    7.1082   -1.2548    0.0000 C   0  0  0  0  0  0  0  0  0  0  0  0
    3.8000   -2.7894    0.0000 C   0  0  0  0  0  0  0  0  0  0  0  0
    5.5071   -3.4966    0.0000 C   0  0  0  0  0  0  0  0  0  0  0  0
    7.1082   -3.3241    0.0000 C   0  0  0  0  0  0  0  0  0  0  0  0
    4.5071   -3.4966    0.0000 C   0  0  0  0  0  0  0  0  0  0  0  0
    2.9061   -1.2548    0.0000 C   0  0  0  0  0  0  0  0  0  0  0  0
    8.0142   -1.7686    0.0000 C   0  0  0  0  0  0  0  0  0  0  0  0
    8.0142   -2.8103    0.0000 C   0  0  0  0  0  0  0  0  0  0  0  0
    2.9061   -3.3241    0.0000 C   0  0  0  0  0  0  0  0  0  0  0  0
    2.0000   -1.7686    0.0000 C   0  0  0  0  0  0  0  0  0  0  0  0
    2.0000   -2.8103    0.0000 C   0  0  0  0  0  0  0  0  0  0  0  0
    6.1866    1.2256    0.0000 H   0  0  0  0  0  0  0  0  0  0  0  0
    6.0826    2.0159    0.0000 H   0  0  0  0  0  0  0  0  0  0  0  0
    4.7581    0.9680    0.0000 H   0  0  0  0  0  0  0  0  0  0  0  0
    4.8622    0.1778    0.0000 H   0  0  0  0  0  0  0  0  0  0  0  0
    3.5136    1.9353    0.0000 H   0  0  0  0  0  0  0  0  0  0  0  0
    4.2500    1.6303    0.0000 H   0  0  0  0  0  0  0  0  0  0  0  0
    5.9605    2.9429    0.0000 H   0  0  0  0  0  0  0  0  0  0  0  0
    5.8565    3.7331    0.0000 H   0  0  0  0  0  0  0  0  0  0  0  0
    6.4127   -0.4916    0.0000 H   0  0  0  0  0  0  0  0  0  0  0  0
    6.3087    0.2987    0.0000 H   0  0  0  0  0  0  0  0  0  0  0  0
    2.9318    3.3481    0.0000 H   0  0  0  0  0  0  0  0  0  0  0  0
    3.0359    2.5578    0.0000 H   0  0  0  0  0  0  0  0  0  0  0  0
    5.3788    4.3556    0.0000 H   0  0  0  0  0  0  0  0  0  0  0  0
    4.6424    4.6607    0.0000 H   0  0  0  0  0  0  0  0  0  0  0  0
    7.1010   -0.6348    0.0000 H   0  0  0  0  0  0  0  0  0  0  0  0
    5.7444   -4.0694    0.0000 H   0  0  0  0  0  0  0  0  0  0  0  0
    7.1010   -3.9441    0.0000 H   0  0  0  0  0  0  0  0  0  0  0  0
    4.2698   -4.0694    0.0000 H   0  0  0  0  0  0  0  0  0  0  0  0
    2.9132   -0.6348    0.0000 H   0  0  0  0  0  0  0  0  0  0  0  0
    8.5500   -1.4566    0.0000 H   0  0  0  0  0  0  0  0  0  0  0  0
    8.5500   -3.1223    0.0000 H   0  0  0  0  0  0  0  0  0  0  0  0
    2.9132   -3.9441    0.0000 H   0  0  0  0  0  0  0  0  0  0  0  0
    1.4643   -1.4566    0.0000 H   0  0  0  0  0  0  0  0  0  0  0  0
    1.4643   -3.1223    0.0000 H   0  0  0  0  0  0  0  0  0  0  0  0
  1 10  1  0  0  0  0
  1 11  1  0  0  0  0
  2 13  2  0  0  0  0
  3  5  1  0  0  0  0
  3  7  1  0  0  0  0
  3  8  1  0  0  0  0
  4  9  1  0  0  0  0
  4 12  1  0  0  0  0
  4 13  1  0  0  0  0
  5  6  1  0  0  0  0
  5 27  1  0  0  0  0
  5 28  1  0  0  0  0
  6  9  1  0  0  0  0
  6 29  1  0  0  0  0
  6 30  1  0  0  0  0
  7 10  1  0  0  0  0
  7 31  1  0  0  0  0
  7 32  1  0  0  0  0
  8 11  1  0  0  0  0
  8 33  1  0  0  0  0
  8 34  1  0  0  0  0
  9 35  1  0  0  0  0
  9 36  1  0  0  0  0
 10 37  1  0  0  0  0
 10 38  1  0  0  0  0
 11 39  1  0  0  0  0
 11 40  1  0  0  0  0
 12 14  1  0  0  0  0
 12 16  2  0  0  0  0
 13 15  1  0  0  0  0
 14 18  1  0  0  0  0
 14 19  2  0  0  0  0
 15 17  1  0  0  0  0
 15 21  2  0  0  0  0
 16 22  1  0  0  0  0
 16 41  1  0  0  0  0
 17 20  1  0  0  0  0
 17 24  2  0  0  0  0
 18 20  2  0  0  0  0
 18 42  1  0  0  0  0
 19 23  1  0  0  0  0
 19 43  1  0  0  0  0
 20 44  1  0  0  0  0
 21 25  1  0  0  0  0
 21 45  1  0  0  0  0
 22 23  2  0  0  0  0
 22 46  1  0  0  0  0
 23 47  1  0  0  0  0
 24 26  1  0  0  0  0
 24 48  1  0  0  0  0
 25 26  2  0  0  0  0
 25 49  1  0  0  0  0
 26 50  1  0  0  0  0
M  END
> <PUBCHEM_COMPOUND_CID>
162644502

> <PUBCHEM_COMPOUND_CANONICALIZED>
1

> <PUBCHEM_CACTVS_COMPLEXITY>
500

> <PUBCHEM_CACTVS_HBOND_ACCEPTOR>
3

> <PUBCHEM_CACTVS_HBOND_DONOR>
0

> <PUBCHEM_CACTVS_ROTATABLE_BOND>
4

> <PUBCHEM_CACTVS_SUBSKEYS>
AAADceB7MAAAAAAAAAAAAAAAAAAAAAAAAAA8YIAAAAAQAAABQAAAHgAAAAAADAjhmAYwwIMABACIAiVSUACCAAAlAgAIiAEIZMgKIDLA1ZGHIQhghgDYyYcYiICOgAAAAAASAAAAAAAAACQAAAAAAAAAAA==

> <PUBCHEM_IUPAC_OPENEYE_NAME>
(11Z)-5-(3-morpholinopropyl)benzo[c][1]benzazocin-6-one

> <PUBCHEM_IUPAC_CAS_NAME>
(11Z)-5-[3-(4-morpholinyl)propyl]-6-benzo[c][1]benzazocinone

> <PUBCHEM_IUPAC_NAME_MARKUP>
(11<I>Z</I>)-5-(3-morpholin-4-ylpropyl)benzo[c][1]benzazocin-6-one

> <PUBCHEM_IUPAC_NAME>
(11Z)-5-(3-morpholin-4-ylpropyl)benzo[c][1]benzazocin-6-one

> <PUBCHEM_IUPAC_SYSTEMATIC_NAME>
(11Z)-5-(3-morpholin-4-ylpropyl)benzo[c][1]benzazocin-6-one

> <PUBCHEM_IUPAC_TRADITIONAL_NAME>
(11Z)-5-(3-morpholinopropyl)benzo[c][1]benzazocin-6-one

> <PUBCHEM_IUPAC_INCHI>
InChI=1S/C22H24N2O2/c25-22-20-8-3-1-6-18(20)10-11-19-7-2-4-9-21(19)24(22)13-5-12-23-14-16-26-17-15-23/h1-4,6-11H,5,12-17H2/b11-10-

> <PUBCHEM_IUPAC_INCHIKEY>
FWCSMQRGFXNYQC-KHPPLWFESA-N

> <PUBCHEM_XLOGP3_AA>
3.5

> <PUBCHEM_EXACT_MASS>
348.183778013

> <PUBCHEM_MOLECULAR_FORMULA>
C22H24N2O2

> <PUBCHEM_MOLECULAR_WEIGHT>
348.4

> <PUBCHEM_OPENEYE_CAN_SMILES>
C1COCCN1CCCN2C3=CC=CC=C3C=CC4=CC=CC=C4C2=O

> <PUBCHEM_OPENEYE_ISO_SMILES>
C1COCCN1CCCN2C3=CC=CC=C3/C=C\C4=CC=CC=C4C2=O

> <PUBCHEM_CACTVS_TPSA>
32.8

> <PUBCHEM_MONOISOTOPIC_WEIGHT>
348.183778013

> <PUBCHEM_TOTAL_CHARGE>
0

> <PUBCHEM_HEAVY_ATOM_COUNT>
26

> <PUBCHEM_ATOM_DEF_STEREO_COUNT>
0

> <PUBCHEM_ATOM_UDEF_STEREO_COUNT>
0

> <PUBCHEM_BOND_DEF_STEREO_COUNT>
1

> <PUBCHEM_BOND_UDEF_STEREO_COUNT>
0

> <PUBCHEM_ISOTOPIC_ATOM_COUNT>
0

> <PUBCHEM_COMPONENT_COUNT>
1

> <PUBCHEM_CACTVS_TAUTO_COUNT>
-1

> <PUBCHEM_COORDINATE_TYPE>
1
5
255

> <PUBCHEM_BONDANNOTATIONS>
12  14  8
12  16  8
14  19  8
15  17  8
15  21  8
16  22  8
17  24  8
19  23  8
21  25  8
22  23  8
24  26  8
25  26  8

$$$$
