44340285
  -OEChem-09292322212D

 60 62  0     1  0  0  0  0  0999 V2000
    6.3301   -4.1555    0.0000 S   0  0  0  0  0  0  0  0  0  0  0  0
    2.8660   -2.1555    0.0000 O   0  0  0  0  0  0  0  0  0  0  0  0
    5.8301   -5.0216    0.0000 O   0  0  0  0  0  0  0  0  0  0  0  0
    6.8301   -3.2895    0.0000 O   0  0  0  0  0  0  0  0  0  0  0  0
    3.9170    2.1059    0.0000 N   0  0  3  0  0  0  0  0  0  0  0  0
    3.7891   -0.5677    0.0000 N   0  0  0  0  0  0  0  0  0  0  0  0
    3.5103    1.1923    0.0000 C   0  0  0  0  0  0  0  0  0  0  0  0
    4.0981    0.3833    0.0000 C   0  0  0  0  0  0  0  0  0  0  0  0
    3.3292    2.9149    0.0000 C   0  0  0  0  0  0  0  0  0  0  0  0
    4.9116    2.2104    0.0000 C   0  0  0  0  0  0  0  0  0  0  0  0
    4.5981   -1.1555    0.0000 C   0  0  0  0  0  0  0  0  0  0  0  0
    3.7360    3.8284    0.0000 C   0  0  0  0  0  0  0  0  0  0  0  0
    4.5981   -2.1555    0.0000 C   0  0  0  0  0  0  0  0  0  0  0  0
    5.0981    0.3833    0.0000 C   0  0  0  0  0  0  0  0  0  0  0  0
    5.4071   -0.5677    0.0000 C   0  0  0  0  0  0  0  0  0  0  0  0
    5.4641   -3.6555    0.0000 C   0  0  0  0  0  0  0  0  0  0  0  0
    5.4641   -2.6555    0.0000 C   0  0  0  0  0  0  0  0  0  0  0  0
    3.1482    4.6374    0.0000 C   0  0  0  0  0  0  0  0  0  0  0  0
    3.7320   -2.6555    0.0000 C   0  0  0  0  0  0  0  0  0  0  0  0
    5.3183    3.1239    0.0000 C   0  0  0  0  0  0  0  0  0  0  0  0
    4.7305    3.9330    0.0000 C   0  0  0  0  0  0  0  0  0  0  0  0
    4.5981   -4.1555    0.0000 C   0  0  0  0  0  0  0  0  0  0  0  0
    7.1962   -4.6555    0.0000 C   0  0  0  0  0  0  0  0  0  0  0  0
    3.7320   -3.6555    0.0000 C   0  0  0  0  0  0  0  0  0  0  0  0
    3.5549    5.5510    0.0000 C   0  0  0  0  0  0  0  0  0  0  0  0
    2.1537    4.5329    0.0000 C   0  0  0  0  0  0  0  0  0  0  0  0
    5.1372    4.8465    0.0000 C   0  0  0  0  0  0  0  0  0  0  0  0
    4.5494    5.6555    0.0000 C   0  0  0  0  0  0  0  0  0  0  0  0
    7.1962   -5.6555    0.0000 C   0  0  0  0  0  0  0  0  0  0  0  0
    2.0000   -2.6555    0.0000 C   0  0  0  0  0  0  0  0  0  0  0  0
    2.9963    1.5390    0.0000 H   0  0  0  0  0  0  0  0  0  0  0  0
    3.0796    0.7463    0.0000 H   0  0  0  0  0  0  0  0  0  0  0  0
    2.8152    3.2616    0.0000 H   0  0  0  0  0  0  0  0  0  0  0  0
    2.8986    2.4689    0.0000 H   0  0  0  0  0  0  0  0  0  0  0  0
    4.8683    1.5919    0.0000 H   0  0  0  0  0  0  0  0  0  0  0  0
    5.5131    2.0604    0.0000 H   0  0  0  0  0  0  0  0  0  0  0  0
    3.1994   -0.7593    0.0000 H   0  0  0  0  0  0  0  0  0  0  0  0
    5.4625    0.8849    0.0000 H   0  0  0  0  0  0  0  0  0  0  0  0
    5.9967   -0.7593    0.0000 H   0  0  0  0  0  0  0  0  0  0  0  0
    6.0010   -2.3455    0.0000 H   0  0  0  0  0  0  0  0  0  0  0  0
    5.8847    2.8718    0.0000 H   0  0  0  0  0  0  0  0  0  0  0  0
    5.5705    3.6904    0.0000 H   0  0  0  0  0  0  0  0  0  0  0  0
    4.7519    3.3761    0.0000 H   0  0  0  0  0  0  0  0  0  0  0  0
    5.0949    3.4314    0.0000 H   0  0  0  0  0  0  0  0  0  0  0  0
    7.8067   -4.7632    0.0000 H   0  0  0  0  0  0  0  0  0  0  0  0
    7.4082   -4.0729    0.0000 H   0  0  0  0  0  0  0  0  0  0  0  0
    4.5981   -4.7755    0.0000 H   0  0  0  0  0  0  0  0  0  0  0  0
    3.1951   -3.9655    0.0000 H   0  0  0  0  0  0  0  0  0  0  0  0
    3.1905    6.0526    0.0000 H   0  0  0  0  0  0  0  0  0  0  0  0
    2.0889    5.1495    0.0000 H   0  0  0  0  0  0  0  0  0  0  0  0
    1.5371    4.4681    0.0000 H   0  0  0  0  0  0  0  0  0  0  0  0
    2.2185    3.9163    0.0000 H   0  0  0  0  0  0  0  0  0  0  0  0
    5.7538    4.9113    0.0000 H   0  0  0  0  0  0  0  0  0  0  0  0
    4.8016    6.2219    0.0000 H   0  0  0  0  0  0  0  0  0  0  0  0
    6.5762   -5.6555    0.0000 H   0  0  0  0  0  0  0  0  0  0  0  0
    7.1962   -6.2755    0.0000 H   0  0  0  0  0  0  0  0  0  0  0  0
    7.8162   -5.6555    0.0000 H   0  0  0  0  0  0  0  0  0  0  0  0
    1.6900   -2.1186    0.0000 H   0  0  0  0  0  0  0  0  0  0  0  0
    1.4631   -2.9655    0.0000 H   0  0  0  0  0  0  0  0  0  0  0  0
    2.3100   -3.1925    0.0000 H   0  0  0  0  0  0  0  0  0  0  0  0
  1  3  2  0  0  0  0
  1  4  2  0  0  0  0
  1 16  1  0  0  0  0
  1 23  1  0  0  0  0
  2 19  1  0  0  0  0
  2 30  1  0  0  0  0
  5  7  1  0  0  0  0
  5  9  1  0  0  0  0
  5 10  1  0  0  0  0
  6  8  1  0  0  0  0
  6 11  1  0  0  0  0
  6 37  1  0  0  0  0
  7  8  1  0  0  0  0
  7 31  1  0  0  0  0
  7 32  1  0  0  0  0
  8 14  2  0  0  0  0
  9 12  1  0  0  0  0
  9 33  1  0  0  0  0
  9 34  1  0  0  0  0
 10 20  1  0  0  0  0
 10 35  1  0  0  0  0
 10 36  1  0  0  0  0
 11 13  1  0  0  0  0
 11 15  2  0  0  0  0
 12 18  1  0  0  0  0
 12 21  2  0  0  0  0
 13 17  1  0  0  0  0
 13 19  2  0  0  0  0
 14 15  1  0  0  0  0
 14 38  1  0  0  0  0
 15 39  1  0  0  0  0
 16 17  2  0  0  0  0
 16 22  1  0  0  0  0
 17 40  1  0  0  0  0
 18 25  2  0  0  0  0
 18 26  1  0  0  0  0
 19 24  1  0  0  0  0
 20 41  1  0  0  0  0
 20 42  1  0  0  0  0
 20 43  1  0  0  0  0
 21 27  1  0  0  0  0
 21 44  1  0  0  0  0
 22 24  2  0  0  0  0
 22 47  1  0  0  0  0
 23 29  1  0  0  0  0
 23 45  1  0  0  0  0
 23 46  1  0  0  0  0
 24 48  1  0  0  0  0
 25 28  1  0  0  0  0
 25 49  1  0  0  0  0
 26 50  1  0  0  0  0
 26 51  1  0  0  0  0
 26 52  1  0  0  0  0
 27 28  2  0  0  0  0
 27 53  1  0  0  0  0
 28 54  1  0  0  0  0
 29 55  1  0  0  0  0
 29 56  1  0  0  0  0
 29 57  1  0  0  0  0
 30 58  1  0  0  0  0
 30 59  1  0  0  0  0
 30 60  1  0  0  0  0
M  END
> <PUBCHEM_COMPOUND_CID>
44340285

> <PUBCHEM_COMPOUND_CANONICALIZED>
1

> <PUBCHEM_CACTVS_COMPLEXITY>
620

> <PUBCHEM_CACTVS_HBOND_ACCEPTOR>
4

> <PUBCHEM_CACTVS_HBOND_DONOR>
1

> <PUBCHEM_CACTVS_ROTATABLE_BOND>
9

> <PUBCHEM_CACTVS_SUBSKEYS>
AAADceB7MABAAAAAAAAAAAAAAAAAAWAAAAAwYAAAAAAAAAAB0AAAHgQQAAAADAzF3gayh5PJlAqgAyRiRHDCiCAhKjAImTg+bJgMZuLksZuUMChm0BHo6AeQwOAOgIAAgAAYAAABAAEAADAAAAAAAAAAAA==

> <PUBCHEM_IUPAC_OPENEYE_NAME>
N-[[5-(5-ethylsulfonyl-2-methoxy-phenyl)-1H-pyrrol-2-yl]methyl]-N-(o-tolylmethyl)ethanamine

> <PUBCHEM_IUPAC_CAS_NAME>
N-[[5-(5-ethylsulfonyl-2-methoxyphenyl)-1H-pyrrol-2-yl]methyl]-N-[(2-methylphenyl)methyl]ethanamine

> <PUBCHEM_IUPAC_NAME_MARKUP>
<I>N</I>-[[5-(5-ethylsulfonyl-2-methoxyphenyl)-1<I>H</I>-pyrrol-2-yl]methyl]-<I>N</I>-[(2-methylphenyl)methyl]ethanamine

> <PUBCHEM_IUPAC_NAME>
N-[[5-(5-ethylsulfonyl-2-methoxyphenyl)-1H-pyrrol-2-yl]methyl]-N-[(2-methylphenyl)methyl]ethanamine

> <PUBCHEM_IUPAC_SYSTEMATIC_NAME>
N-[[5-(5-ethylsulfonyl-2-methoxy-phenyl)-1H-pyrrol-2-yl]methyl]-N-[(2-methylphenyl)methyl]ethanamine

> <PUBCHEM_IUPAC_TRADITIONAL_NAME>
[5-(5-esyl-2-methoxy-phenyl)-1H-pyrrol-2-yl]methyl-ethyl-(2-methylbenzyl)amine

> <PUBCHEM_IUPAC_INCHI>
InChI=1S/C24H30N2O3S/c1-5-26(16-19-10-8-7-9-18(19)3)17-20-11-13-23(25-20)22-15-21(30(27,28)6-2)12-14-24(22)29-4/h7-15,25H,5-6,16-17H2,1-4H3

> <PUBCHEM_IUPAC_INCHIKEY>
DJYCHIVFEYCSOS-UHFFFAOYSA-N

> <PUBCHEM_XLOGP3_AA>
4

> <PUBCHEM_EXACT_MASS>
426.19771400

> <PUBCHEM_MOLECULAR_FORMULA>
C24H30N2O3S

> <PUBCHEM_MOLECULAR_WEIGHT>
426.6

> <PUBCHEM_OPENEYE_CAN_SMILES>
CCN(CC1=CC=CC=C1C)CC2=CC=C(N2)C3=C(C=CC(=C3)S(=O)(=O)CC)OC

> <PUBCHEM_OPENEYE_ISO_SMILES>
CCN(CC1=CC=CC=C1C)CC2=CC=C(N2)C3=C(C=CC(=C3)S(=O)(=O)CC)OC

> <PUBCHEM_CACTVS_TPSA>
70.8

> <PUBCHEM_MONOISOTOPIC_WEIGHT>
426.19771400

> <PUBCHEM_TOTAL_CHARGE>
0

> <PUBCHEM_HEAVY_ATOM_COUNT>
30

> <PUBCHEM_ATOM_DEF_STEREO_COUNT>
0

> <PUBCHEM_ATOM_UDEF_STEREO_COUNT>
0

> <PUBCHEM_BOND_DEF_STEREO_COUNT>
0

> <PUBCHEM_BOND_UDEF_STEREO_COUNT>
0

> <PUBCHEM_ISOTOPIC_ATOM_COUNT>
0

> <PUBCHEM_COMPONENT_COUNT>
1

> <PUBCHEM_CACTVS_TAUTO_COUNT>
-1

> <PUBCHEM_COORDINATE_TYPE>
1
5
255

> <PUBCHEM_BONDANNOTATIONS>
11  15  8
12  18  8
12  21  8
13  17  8
13  19  8
14  15  8
16  17  8
16  22  8
18  25  8
19  24  8
21  27  8
22  24  8
25  28  8
27  28  8
6  11  8
6  8  8
8  14  8

$$$$
