44297694
  -OEChem-09292322222D

 72 76  0     1  0  0  0  0  0999 V2000
    3.7320    1.6181    0.0000 S   0  0  0  0  0  0  0  0  0  0  0  0
    2.0000    2.6181    0.0000 F   0  0  0  0  0  0  0  0  0  0  0  0
    2.3660    1.2520    0.0000 F   0  0  0  0  0  0  0  0  0  0  0  0
    3.3660    2.9841    0.0000 F   0  0  0  0  0  0  0  0  0  0  0  0
    4.5981    1.1181    0.0000 O   0  0  0  0  0  0  0  0  0  0  0  0
   14.1961    2.5772    0.0000 O   0  0  0  0  0  0  0  0  0  0  0  0
    3.2320    0.7520    0.0000 O   0  0  0  0  0  0  0  0  0  0  0  0
    4.2320    2.4841    0.0000 O   0  0  0  0  0  0  0  0  0  0  0  0
   21.1560   -1.5429    0.0000 O   0  0  0  0  0  0  0  0  0  0  0  0
    8.9962    1.5972    0.0000 N   0  0  3  0  0  0  0  0  0  0  0  0
   13.3243    1.0806    0.0000 N   0  0  0  0  0  0  0  0  0  0  0  0
   20.3416   -2.9410    0.0000 N   0  0  0  0  0  0  0  0  0  0  0  0
   21.3190   -3.1527    0.0000 N   0  0  0  0  0  0  0  0  0  0  0  0
    8.9962    2.6389    0.0000 C   0  0  0  0  0  0  0  0  0  0  0  0
    8.0901    1.0834    0.0000 C   0  0  0  0  0  0  0  0  0  0  0  0
    8.0901    3.1527    0.0000 C   0  0  0  0  0  0  0  0  0  0  0  0
    9.8602    1.0939    0.0000 C   0  0  0  0  0  0  0  0  0  0  0  0
    7.1962    1.6181    0.0000 C   0  0  0  0  0  0  0  0  0  0  0  0
    7.1962    2.6181    0.0000 C   0  0  0  0  0  0  0  0  0  0  0  0
   10.7282    1.5906    0.0000 C   0  0  0  0  0  0  0  0  0  0  0  0
   11.5923    1.0872    0.0000 C   0  0  0  0  0  0  0  0  0  0  0  0
    6.3301    1.1181    0.0000 C   0  0  0  0  0  0  0  0  0  0  0  0
    6.3301    3.1181    0.0000 C   0  0  0  0  0  0  0  0  0  0  0  0
    5.4641    1.6181    0.0000 C   0  0  0  0  0  0  0  0  0  0  0  0
   12.4602    1.5839    0.0000 C   0  0  0  0  0  0  0  0  0  0  0  0
    5.4641    2.6181    0.0000 C   0  0  0  0  0  0  0  0  0  0  0  0
   14.1923    1.5772    0.0000 C   0  0  0  0  0  0  0  0  0  0  0  0
   15.0564    1.0739    0.0000 C   0  0  0  0  0  0  0  0  0  0  0  0
    2.8660    2.1181    0.0000 C   0  0  0  0  0  0  0  0  0  0  0  0
   15.0525    0.0739    0.0000 C   0  0  0  0  0  0  0  0  0  0  0  0
   15.9243    1.5705    0.0000 C   0  0  0  0  0  0  0  0  0  0  0  0
   16.7845    0.0672    0.0000 C   0  0  0  0  0  0  0  0  0  0  0  0
   15.9166   -0.4294    0.0000 C   0  0  0  0  0  0  0  0  0  0  0  0
   16.7884    1.0672    0.0000 C   0  0  0  0  0  0  0  0  0  0  0  0
   17.6486   -0.4361    0.0000 C   0  0  0  0  0  0  0  0  0  0  0  0
   18.5166    0.0605    0.0000 C   0  0  0  0  0  0  0  0  0  0  0  0
   17.6448   -1.4361    0.0000 C   0  0  0  0  0  0  0  0  0  0  0  0
   19.3768   -1.4428    0.0000 C   0  0  0  0  0  0  0  0  0  0  0  0
   19.3807   -0.4428    0.0000 C   0  0  0  0  0  0  0  0  0  0  0  0
   18.5089   -1.9394    0.0000 C   0  0  0  0  0  0  0  0  0  0  0  0
   20.2409   -1.9461    0.0000 C   0  0  0  0  0  0  0  0  0  0  0  0
   21.8223   -2.2886    0.0000 C   0  0  0  0  0  0  0  0  0  0  0  0
   22.8172   -2.1879    0.0000 C   0  0  0  0  0  0  0  0  0  0  0  0
    9.6070    2.5328    0.0000 H   0  0  0  0  0  0  0  0  0  0  0  0
    9.2052    3.2226    0.0000 H   0  0  0  0  0  0  0  0  0  0  0  0
    7.6855    0.6136    0.0000 H   0  0  0  0  0  0  0  0  0  0  0  0
    8.4837    0.6044    0.0000 H   0  0  0  0  0  0  0  0  0  0  0  0
    8.4837    3.6317    0.0000 H   0  0  0  0  0  0  0  0  0  0  0  0
    7.6855    3.6225    0.0000 H   0  0  0  0  0  0  0  0  0  0  0  0
    9.4599    0.6205    0.0000 H   0  0  0  0  0  0  0  0  0  0  0  0
   10.2569    0.6174    0.0000 H   0  0  0  0  0  0  0  0  0  0  0  0
   11.1286    2.0640    0.0000 H   0  0  0  0  0  0  0  0  0  0  0  0
   10.3315    2.0670    0.0000 H   0  0  0  0  0  0  0  0  0  0  0  0
   11.1919    0.6138    0.0000 H   0  0  0  0  0  0  0  0  0  0  0  0
   11.9890    0.6108    0.0000 H   0  0  0  0  0  0  0  0  0  0  0  0
    6.3301    0.4981    0.0000 H   0  0  0  0  0  0  0  0  0  0  0  0
    6.3301    3.7381    0.0000 H   0  0  0  0  0  0  0  0  0  0  0  0
   12.8606    2.0573    0.0000 H   0  0  0  0  0  0  0  0  0  0  0  0
   12.0635    2.0604    0.0000 H   0  0  0  0  0  0  0  0  0  0  0  0
    4.9272    2.9281    0.0000 H   0  0  0  0  0  0  0  0  0  0  0  0
   13.3219    0.4606    0.0000 H   0  0  0  0  0  0  0  0  0  0  0  0
   14.5144   -0.2340    0.0000 H   0  0  0  0  0  0  0  0  0  0  0  0
   15.9267    2.1905    0.0000 H   0  0  0  0  0  0  0  0  0  0  0  0
   15.9142   -1.0494    0.0000 H   0  0  0  0  0  0  0  0  0  0  0  0
   17.3265    1.3751    0.0000 H   0  0  0  0  0  0  0  0  0  0  0  0
   18.5190    0.6805    0.0000 H   0  0  0  0  0  0  0  0  0  0  0  0
   17.1067   -1.7440    0.0000 H   0  0  0  0  0  0  0  0  0  0  0  0
   19.9188   -0.1349    0.0000 H   0  0  0  0  0  0  0  0  0  0  0  0
   18.5065   -2.5594    0.0000 H   0  0  0  0  0  0  0  0  0  0  0  0
   22.8796   -2.8048    0.0000 H   0  0  0  0  0  0  0  0  0  0  0  0
   23.4340   -2.1255    0.0000 H   0  0  0  0  0  0  0  0  0  0  0  0
   22.7548   -1.5711    0.0000 H   0  0  0  0  0  0  0  0  0  0  0  0
  1  5  1  0  0  0  0
  1  7  2  0  0  0  0
  1  8  2  0  0  0  0
  1 29  1  0  0  0  0
  2 29  1  0  0  0  0
  3 29  1  0  0  0  0
  4 29  1  0  0  0  0
  5 24  1  0  0  0  0
  6 27  2  0  0  0  0
  9 41  1  0  0  0  0
  9 42  1  0  0  0  0
 10 14  1  0  0  0  0
 10 15  1  0  0  0  0
 10 17  1  0  0  0  0
 11 25  1  0  0  0  0
 11 27  1  0  0  0  0
 11 61  1  0  0  0  0
 12 13  1  0  0  0  0
 12 41  2  0  0  0  0
 13 42  2  0  0  0  0
 14 16  1  0  0  0  0
 14 44  1  0  0  0  0
 14 45  1  0  0  0  0
 15 18  1  0  0  0  0
 15 46  1  0  0  0  0
 15 47  1  0  0  0  0
 16 19  1  0  0  0  0
 16 48  1  0  0  0  0
 16 49  1  0  0  0  0
 17 20  1  0  0  0  0
 17 50  1  0  0  0  0
 17 51  1  0  0  0  0
 18 19  2  0  0  0  0
 18 22  1  0  0  0  0
 19 23  1  0  0  0  0
 20 21  1  0  0  0  0
 20 52  1  0  0  0  0
 20 53  1  0  0  0  0
 21 25  1  0  0  0  0
 21 54  1  0  0  0  0
 21 55  1  0  0  0  0
 22 24  2  0  0  0  0
 22 56  1  0  0  0  0
 23 26  2  0  0  0  0
 23 57  1  0  0  0  0
 24 26  1  0  0  0  0
 25 58  1  0  0  0  0
 25 59  1  0  0  0  0
 26 60  1  0  0  0  0
 27 28  1  0  0  0  0
 28 30  2  0  0  0  0
 28 31  1  0  0  0  0
 30 33  1  0  0  0  0
 30 62  1  0  0  0  0
 31 34  2  0  0  0  0
 31 63  1  0  0  0  0
 32 33  2  0  0  0  0
 32 34  1  0  0  0  0
 32 35  1  0  0  0  0
 33 64  1  0  0  0  0
 34 65  1  0  0  0  0
 35 36  2  0  0  0  0
 35 37  1  0  0  0  0
 36 39  1  0  0  0  0
 36 66  1  0  0  0  0
 37 40  2  0  0  0  0
 37 67  1  0  0  0  0
 38 39  2  0  0  0  0
 38 40  1  0  0  0  0
 38 41  1  0  0  0  0
 39 68  1  0  0  0  0
 40 69  1  0  0  0  0
 42 43  1  0  0  0  0
 43 70  1  0  0  0  0
 43 71  1  0  0  0  0
 43 72  1  0  0  0  0
M  END
> <PUBCHEM_COMPOUND_CID>
44297694

> <PUBCHEM_COMPOUND_CANONICALIZED>
1

> <PUBCHEM_CACTVS_COMPLEXITY>
1010

> <PUBCHEM_CACTVS_HBOND_ACCEPTOR>
11

> <PUBCHEM_CACTVS_HBOND_DONOR>
1

> <PUBCHEM_CACTVS_ROTATABLE_BOND>
10

> <PUBCHEM_CACTVS_SUBSKEYS>
AAADceB7uYBAAAAAAAAAAAAAAAAAAWAAAAA8YMEAAAAAAACx1AAAHwQYAAAADATBmhQyBoPABEKqAiFyEHCSAAAsIAAaiKE+DNgIJrKAtRuOMQhk3hGIqYe4yPCO4AABAAAQAADAAAIAACAAAAAAAAAAAA==

> <PUBCHEM_IUPAC_OPENEYE_NAME>
[2-[4-[[4-[4-(5-methyl-1,3,4-oxadiazol-2-yl)phenyl]benzoyl]amino]butyl]-3,4-dihydro-1H-isoquinolin-7-yl] trifluoromethanesulfonate

> <PUBCHEM_IUPAC_CAS_NAME>
trifluoromethanesulfonic acid [2-[4-[[[4-[4-(5-methyl-1,3,4-oxadiazol-2-yl)phenyl]phenyl]-oxomethyl]amino]butyl]-3,4-dihydro-1H-isoquinolin-7-yl] ester

> <PUBCHEM_IUPAC_NAME_MARKUP>
[2-[4-[[4-[4-(5-methyl-1,3,4-oxadiazol-2-yl)phenyl]benzoyl]amino]butyl]-3,4-dihydro-1<I>H</I>-isoquinolin-7-yl] trifluoromethanesulfonate

> <PUBCHEM_IUPAC_NAME>
[2-[4-[[4-[4-(5-methyl-1,3,4-oxadiazol-2-yl)phenyl]benzoyl]amino]butyl]-3,4-dihydro-1H-isoquinolin-7-yl] trifluoromethanesulfonate

> <PUBCHEM_IUPAC_SYSTEMATIC_NAME>
[2-[4-[[4-[4-(5-methyl-1,3,4-oxadiazol-2-yl)phenyl]phenyl]carbonylamino]butyl]-3,4-dihydro-1H-isoquinolin-7-yl] tris(fluoranyl)methanesulfonate

> <PUBCHEM_IUPAC_TRADITIONAL_NAME>
trifluoromethanesulfonic acid [2-[4-[[4-[4-(5-methyl-1,3,4-oxadiazol-2-yl)phenyl]benzoyl]amino]butyl]-3,4-dihydro-1H-isoquinolin-7-yl] ester

> <PUBCHEM_IUPAC_INCHI>
InChI=1S/C30H29F3N4O5S/c1-20-35-36-29(41-20)25-10-6-22(7-11-25)21-4-8-24(9-5-21)28(38)34-15-2-3-16-37-17-14-23-12-13-27(18-26(23)19-37)42-43(39,40)30(31,32)33/h4-13,18H,2-3,14-17,19H2,1H3,(H,34,38)

> <PUBCHEM_IUPAC_INCHIKEY>
OXRRNHYMIXLDFY-UHFFFAOYSA-N

> <PUBCHEM_XLOGP3_AA>
5.7

> <PUBCHEM_EXACT_MASS>
614.18107570

> <PUBCHEM_MOLECULAR_FORMULA>
C30H29F3N4O5S

> <PUBCHEM_MOLECULAR_WEIGHT>
614.6

> <PUBCHEM_OPENEYE_CAN_SMILES>
CC1=NN=C(O1)C2=CC=C(C=C2)C3=CC=C(C=C3)C(=O)NCCCCN4CCC5=C(C4)C=C(C=C5)OS(=O)(=O)C(F)(F)F

> <PUBCHEM_OPENEYE_ISO_SMILES>
CC1=NN=C(O1)C2=CC=C(C=C2)C3=CC=C(C=C3)C(=O)NCCCCN4CCC5=C(C4)C=C(C=C5)OS(=O)(=O)C(F)(F)F

> <PUBCHEM_CACTVS_TPSA>
123

> <PUBCHEM_MONOISOTOPIC_WEIGHT>
614.18107570

> <PUBCHEM_TOTAL_CHARGE>
0

> <PUBCHEM_HEAVY_ATOM_COUNT>
43

> <PUBCHEM_ATOM_DEF_STEREO_COUNT>
0

> <PUBCHEM_ATOM_UDEF_STEREO_COUNT>
0

> <PUBCHEM_BOND_DEF_STEREO_COUNT>
0

> <PUBCHEM_BOND_UDEF_STEREO_COUNT>
0

> <PUBCHEM_ISOTOPIC_ATOM_COUNT>
0

> <PUBCHEM_COMPONENT_COUNT>
1

> <PUBCHEM_CACTVS_TAUTO_COUNT>
-1

> <PUBCHEM_COORDINATE_TYPE>
1
5
255

> <PUBCHEM_BONDANNOTATIONS>
12  13  8
12  41  8
13  42  8
18  19  8
18  22  8
19  23  8
22  24  8
23  26  8
24  26  8
28  30  8
28  31  8
30  33  8
31  34  8
32  33  8
32  34  8
35  36  8
35  37  8
36  39  8
37  40  8
38  39  8
38  40  8
9  41  8
9  42  8

$$$$
