11606435
  -OEChem-09292322492D

 66 71  0     1  0  0  0  0  0999 V2000
    9.0723    0.8739    0.0000 S   0  0  0  0  0  0  0  0  0  0  0  0
    2.3660   -7.2776    0.0000 F   0  0  0  0  0  0  0  0  0  0  0  0
    2.0000   -5.9115    0.0000 F   0  0  0  0  0  0  0  0  0  0  0  0
    3.7320   -6.9115    0.0000 F   0  0  0  0  0  0  0  0  0  0  0  0
    4.3548   -5.4424    0.0000 O   0  0  0  0  0  0  0  0  0  0  0  0
    6.0723   -0.8582    0.0000 N   0  0  3  0  0  0  0  0  0  0  0  0
    2.9609   -4.6377    0.0000 N   0  0  0  0  0  0  0  0  0  0  0  0
   10.5668    1.8444    0.0000 N   0  0  0  0  0  0  0  0  0  0  0  0
    9.1655    2.6535    0.0000 N   0  0  0  0  0  0  0  0  0  0  0  0
    9.9087    3.3226    0.0000 N   0  0  0  0  0  0  0  0  0  0  0  0
   12.8312    5.6647    0.0000 N   0  0  0  0  0  0  0  0  0  0  0  0
    6.6258   -1.6678    0.0000 C   0  0  0  0  0  0  0  0  0  0  0  0
    5.0943   -0.7836    0.0000 C   0  0  0  0  0  0  0  0  0  0  0  0
    6.3405   -2.6062    0.0000 C   0  0  0  0  0  0  0  0  0  0  0  0
    4.4243   -1.4998    0.0000 C   0  0  0  0  0  0  0  0  0  0  0  0
    5.4300   -2.9706    0.0000 C   0  0  0  0  0  0  0  0  0  0  0  0
    4.5640   -2.4706    0.0000 C   0  0  0  0  0  0  0  0  0  0  0  0
    6.5723    0.0079    0.0000 C   0  0  0  0  0  0  0  0  0  0  0  0
    7.5723    0.0079    0.0000 C   0  0  0  0  0  0  0  0  0  0  0  0
    5.4300   -3.9706    0.0000 C   0  0  0  0  0  0  0  0  0  0  0  0
    3.6979   -2.9706    0.0000 C   0  0  0  0  0  0  0  0  0  0  0  0
    4.5640   -4.4706    0.0000 C   0  0  0  0  0  0  0  0  0  0  0  0
    3.6979   -3.9706    0.0000 C   0  0  0  0  0  0  0  0  0  0  0  0
    8.0723    0.8739    0.0000 C   0  0  0  0  0  0  0  0  0  0  0  0
    3.3660   -5.5455    0.0000 C   0  0  0  0  0  0  0  0  0  0  0  0
    9.5723    1.7399    0.0000 C   0  0  0  0  0  0  0  0  0  0  0  0
    2.8660   -6.4115    0.0000 C   0  0  0  0  0  0  0  0  0  0  0  0
   10.7747    2.8226    0.0000 C   0  0  0  0  0  0  0  0  0  0  0  0
   11.6882    3.2293    0.0000 C   0  0  0  0  0  0  0  0  0  0  0  0
   11.7928    4.2238    0.0000 C   0  0  0  0  0  0  0  0  0  0  0  0
   11.2359    1.1013    0.0000 C   0  0  0  0  0  0  0  0  0  0  0  0
   12.7063    4.6306    0.0000 C   0  0  0  0  0  0  0  0  0  0  0  0
   12.4973    2.6415    0.0000 C   0  0  0  0  0  0  0  0  0  0  0  0
   10.9407    4.8230    0.0000 C   0  0  0  0  0  0  0  0  0  0  0  0
   13.5153    4.0428    0.0000 C   0  0  0  0  0  0  0  0  0  0  0  0
   13.4108    3.0483    0.0000 C   0  0  0  0  0  0  0  0  0  0  0  0
   11.0416    5.8598    0.0000 C   0  0  0  0  0  0  0  0  0  0  0  0
   11.9932    6.2834    0.0000 C   0  0  0  0  0  0  0  0  0  0  0  0
   12.1016    7.2776    0.0000 C   0  0  0  0  0  0  0  0  0  0  0  0
    7.1638   -1.9761    0.0000 H   0  0  0  0  0  0  0  0  0  0  0  0
    7.0465   -1.2124    0.0000 H   0  0  0  0  0  0  0  0  0  0  0  0
    5.2784   -0.1915    0.0000 H   0  0  0  0  0  0  0  0  0  0  0  0
    4.5584   -0.4719    0.0000 H   0  0  0  0  0  0  0  0  0  0  0  0
    6.4365   -3.2187    0.0000 H   0  0  0  0  0  0  0  0  0  0  0  0
    6.9590   -2.6494    0.0000 H   0  0  0  0  0  0  0  0  0  0  0  0
    4.0776   -0.9858    0.0000 H   0  0  0  0  0  0  0  0  0  0  0  0
    3.8458   -1.7230    0.0000 H   0  0  0  0  0  0  0  0  0  0  0  0
    6.6799    0.6184    0.0000 H   0  0  0  0  0  0  0  0  0  0  0  0
    5.9896    0.2199    0.0000 H   0  0  0  0  0  0  0  0  0  0  0  0
    7.4646   -0.6027    0.0000 H   0  0  0  0  0  0  0  0  0  0  0  0
    8.1549   -0.2042    0.0000 H   0  0  0  0  0  0  0  0  0  0  0  0
    5.9669   -4.2806    0.0000 H   0  0  0  0  0  0  0  0  0  0  0  0
    3.1610   -2.6606    0.0000 H   0  0  0  0  0  0  0  0  0  0  0  0
    8.1799    1.4845    0.0000 H   0  0  0  0  0  0  0  0  0  0  0  0
    7.4896    1.0859    0.0000 H   0  0  0  0  0  0  0  0  0  0  0  0
   10.7752    0.6864    0.0000 H   0  0  0  0  0  0  0  0  0  0  0  0
   11.6508    0.6405    0.0000 H   0  0  0  0  0  0  0  0  0  0  0  0
   11.6967    1.5162    0.0000 H   0  0  0  0  0  0  0  0  0  0  0  0
   12.4324    2.0249    0.0000 H   0  0  0  0  0  0  0  0  0  0  0  0
   10.3773    4.5643    0.0000 H   0  0  0  0  0  0  0  0  0  0  0  0
   14.0817    4.2950    0.0000 H   0  0  0  0  0  0  0  0  0  0  0  0
   13.9124    2.6838    0.0000 H   0  0  0  0  0  0  0  0  0  0  0  0
   10.5386    6.2223    0.0000 H   0  0  0  0  0  0  0  0  0  0  0  0
   12.7179    7.2104    0.0000 H   0  0  0  0  0  0  0  0  0  0  0  0
   12.1687    7.8939    0.0000 H   0  0  0  0  0  0  0  0  0  0  0  0
   11.4852    7.3447    0.0000 H   0  0  0  0  0  0  0  0  0  0  0  0
  1 24  1  0  0  0  0
  1 26  1  0  0  0  0
  2 27  1  0  0  0  0
  3 27  1  0  0  0  0
  4 27  1  0  0  0  0
  5 22  1  0  0  0  0
  5 25  1  0  0  0  0
  6 12  1  0  0  0  0
  6 13  1  0  0  0  0
  6 18  1  0  0  0  0
  7 23  1  0  0  0  0
  7 25  2  0  0  0  0
  8 26  1  0  0  0  0
  8 28  1  0  0  0  0
  8 31  1  0  0  0  0
  9 10  1  0  0  0  0
  9 26  2  0  0  0  0
 10 28  2  0  0  0  0
 11 32  1  0  0  0  0
 11 38  2  0  0  0  0
 12 14  1  0  0  0  0
 12 40  1  0  0  0  0
 12 41  1  0  0  0  0
 13 15  1  0  0  0  0
 13 42  1  0  0  0  0
 13 43  1  0  0  0  0
 14 16  1  0  0  0  0
 14 44  1  0  0  0  0
 14 45  1  0  0  0  0
 15 17  1  0  0  0  0
 15 46  1  0  0  0  0
 15 47  1  0  0  0  0
 16 17  1  0  0  0  0
 16 20  2  0  0  0  0
 17 21  2  0  0  0  0
 18 19  1  0  0  0  0
 18 48  1  0  0  0  0
 18 49  1  0  0  0  0
 19 24  1  0  0  0  0
 19 50  1  0  0  0  0
 19 51  1  0  0  0  0
 20 22  1  0  0  0  0
 20 52  1  0  0  0  0
 21 23  1  0  0  0  0
 21 53  1  0  0  0  0
 22 23  2  0  0  0  0
 24 54  1  0  0  0  0
 24 55  1  0  0  0  0
 25 27  1  0  0  0  0
 28 29  1  0  0  0  0
 29 30  2  0  0  0  0
 29 33  1  0  0  0  0
 30 32  1  0  0  0  0
 30 34  1  0  0  0  0
 31 56  1  0  0  0  0
 31 57  1  0  0  0  0
 31 58  1  0  0  0  0
 32 35  2  0  0  0  0
 33 36  2  0  0  0  0
 33 59  1  0  0  0  0
 34 37  2  0  0  0  0
 34 60  1  0  0  0  0
 35 36  1  0  0  0  0
 35 61  1  0  0  0  0
 36 62  1  0  0  0  0
 37 38  1  0  0  0  0
 37 63  1  0  0  0  0
 38 39  1  0  0  0  0
 39 64  1  0  0  0  0
 39 65  1  0  0  0  0
 39 66  1  0  0  0  0
M  END
> <PUBCHEM_COMPOUND_CID>
11606435

> <PUBCHEM_COMPOUND_CANONICALIZED>
1

> <PUBCHEM_CACTVS_COMPLEXITY>
825

> <PUBCHEM_CACTVS_HBOND_ACCEPTOR>
10

> <PUBCHEM_CACTVS_HBOND_DONOR>
0

> <PUBCHEM_CACTVS_ROTATABLE_BOND>
6

> <PUBCHEM_CACTVS_SUBSKEYS>
AAADceB7oYBAAAAAAAAAAAAAAAAAAWLAAAA8YIAABYAAAFix/gAAHwQIAAAADAzF3xSz1vcMFEiqA6dydASS2CtvYrAd2CG/bNiOLvLkvbuPOSjkzBPY6YeY2fKOqAABQAASEABQAAKAACQgAAAAAAAAAA==

> <PUBCHEM_IUPAC_OPENEYE_NAME>
7-[3-[[4-methyl-5-(2-methyl-5-quinolyl)-1,2,4-triazol-3-yl]sulfanyl]propyl]-2-(trifluoromethyl)-5,6,8,9-tetrahydrooxazolo[4,5-h][3]benzazepine

> <PUBCHEM_IUPAC_CAS_NAME>
7-[3-[[4-methyl-5-(2-methyl-5-quinolinyl)-1,2,4-triazol-3-yl]thio]propyl]-2-(trifluoromethyl)-5,6,8,9-tetrahydrooxazolo[4,5-h][3]benzazepine

> <PUBCHEM_IUPAC_NAME_MARKUP>
7-[3-[[4-methyl-5-(2-methylquinolin-5-yl)-1,2,4-triazol-3-yl]sulfanyl]propyl]-2-(trifluoromethyl)-5,6,8,9-tetrahydro-[1,3]oxazolo[4,5-h][3]benzazepine

> <PUBCHEM_IUPAC_NAME>
7-[3-[[4-methyl-5-(2-methylquinolin-5-yl)-1,2,4-triazol-3-yl]sulfanyl]propyl]-2-(trifluoromethyl)-5,6,8,9-tetrahydro-[1,3]oxazolo[4,5-h][3]benzazepine

> <PUBCHEM_IUPAC_SYSTEMATIC_NAME>
7-[3-[[4-methyl-5-(2-methylquinolin-5-yl)-1,2,4-triazol-3-yl]sulfanyl]propyl]-2-(trifluoromethyl)-5,6,8,9-tetrahydro-[1,3]oxazolo[4,5-h][3]benzazepine

> <PUBCHEM_IUPAC_TRADITIONAL_NAME>
7-[3-[[4-methyl-5-(2-methyl-5-quinolyl)-1,2,4-triazol-3-yl]thio]propyl]-2-(trifluoromethyl)-5,6,8,9-tetrahydrooxazolo[4,5-h][3]benzazepine

> <PUBCHEM_IUPAC_INCHI>
InChI=1S/C28H27F3N6OS/c1-17-7-8-20-21(5-3-6-22(20)32-17)25-34-35-27(36(25)2)39-14-4-11-37-12-9-18-15-23-24(16-19(18)10-13-37)38-26(33-23)28(29,30)31/h3,5-8,15-16H,4,9-14H2,1-2H3

> <PUBCHEM_IUPAC_INCHIKEY>
WHKXNUMKCCTWNI-UHFFFAOYSA-N

> <PUBCHEM_XLOGP3_AA>
5.7

> <PUBCHEM_EXACT_MASS>
552.19191517

> <PUBCHEM_MOLECULAR_FORMULA>
C28H27F3N6OS

> <PUBCHEM_MOLECULAR_WEIGHT>
552.6

> <PUBCHEM_OPENEYE_CAN_SMILES>
CC1=NC2=CC=CC(=C2C=C1)C3=NN=C(N3C)SCCCN4CCC5=CC6=C(C=C5CC4)OC(=N6)C(F)(F)F

> <PUBCHEM_OPENEYE_ISO_SMILES>
CC1=NC2=CC=CC(=C2C=C1)C3=NN=C(N3C)SCCCN4CCC5=CC6=C(C=C5CC4)OC(=N6)C(F)(F)F

> <PUBCHEM_CACTVS_TPSA>
98.2

> <PUBCHEM_MONOISOTOPIC_WEIGHT>
552.19191517

> <PUBCHEM_TOTAL_CHARGE>
0

> <PUBCHEM_HEAVY_ATOM_COUNT>
39

> <PUBCHEM_ATOM_DEF_STEREO_COUNT>
0

> <PUBCHEM_ATOM_UDEF_STEREO_COUNT>
0

> <PUBCHEM_BOND_DEF_STEREO_COUNT>
0

> <PUBCHEM_BOND_UDEF_STEREO_COUNT>
0

> <PUBCHEM_ISOTOPIC_ATOM_COUNT>
0

> <PUBCHEM_COMPONENT_COUNT>
1

> <PUBCHEM_CACTVS_TAUTO_COUNT>
-1

> <PUBCHEM_COORDINATE_TYPE>
1
5
255

> <PUBCHEM_BONDANNOTATIONS>
10  28  8
11  32  8
11  38  8
16  17  8
16  20  8
17  21  8
20  22  8
21  23  8
22  23  8
29  30  8
29  33  8
30  32  8
30  34  8
32  35  8
33  36  8
34  37  8
35  36  8
37  38  8
5  22  8
5  25  8
7  23  8
7  25  8
8  26  8
8  28  8
9  10  8
9  26  8

$$$$
