2101788
  -OEChem-09292322082D

 55 59  0     0  0  0  0  0  0999 V2000
    4.5274    2.7371    0.0000 S   0  0  0  0  0  0  0  0  0  0  0  0
    8.9481    4.6813    0.0000 O   0  0  0  0  0  0  0  0  0  0  0  0
    6.0733   -3.9304    0.0000 O   0  0  0  0  0  0  0  0  0  0  0  0
    8.3374    2.7768    0.0000 N   0  0  0  0  0  0  0  0  0  0  0  0
    6.3518    2.3815    0.0000 N   0  0  0  0  0  0  0  0  0  0  0  0
    6.7328    0.6222    0.0000 N   0  0  0  0  0  0  0  0  0  0  0  0
    5.3923   -0.5339    0.0000 N   0  0  0  0  0  0  0  0  0  0  0  0
    4.0274    1.1982    0.0000 C   0  0  0  0  0  0  0  0  0  0  0  0
    3.3424    0.4135    0.0000 C   0  0  0  0  0  0  0  0  0  0  0  0
    2.3219    0.6222    0.0000 C   0  0  0  0  0  0  0  0  0  0  0  0
    2.0000    1.6129    0.0000 C   0  0  0  0  0  0  0  0  0  0  0  0
    2.7029    2.3815    0.0000 C   0  0  0  0  0  0  0  0  0  0  0  0
    3.7183    2.1493    0.0000 C   0  0  0  0  0  0  0  0  0  0  0  0
    5.0274    1.1982    0.0000 C   0  0  0  0  0  0  0  0  0  0  0  0
    5.3364    2.1493    0.0000 C   0  0  0  0  0  0  0  0  0  0  0  0
    8.0321    1.8245    0.0000 C   0  0  0  0  0  0  0  0  0  0  0  0
    5.7123    0.4135    0.0000 C   0  0  0  0  0  0  0  0  0  0  0  0
    9.3148    2.9885    0.0000 C   0  0  0  0  0  0  0  0  0  0  0  0
    7.6654    3.5173    0.0000 C   0  0  0  0  0  0  0  0  0  0  0  0
    7.0547    1.6129    0.0000 C   0  0  0  0  0  0  0  0  0  0  0  0
    9.6201    3.9407    0.0000 C   0  0  0  0  0  0  0  0  0  0  0  0
    7.9708    4.4696    0.0000 C   0  0  0  0  0  0  0  0  0  0  0  0
    6.0528   -1.2848    0.0000 C   0  0  0  0  0  0  0  0  0  0  0  0
    5.7328   -2.2322    0.0000 C   0  0  0  0  0  0  0  0  0  0  0  0
    7.0333   -1.0882    0.0000 C   0  0  0  0  0  0  0  0  0  0  0  0
    6.3933   -2.9830    0.0000 C   0  0  0  0  0  0  0  0  0  0  0  0
    7.6938   -1.8390    0.0000 C   0  0  0  0  0  0  0  0  0  0  0  0
    7.3738   -2.7864    0.0000 C   0  0  0  0  0  0  0  0  0  0  0  0
    6.7338   -4.6813    0.0000 C   0  0  0  0  0  0  0  0  0  0  0  0
    3.1160   -0.1637    0.0000 H   0  0  0  0  0  0  0  0  0  0  0  0
    3.8724    0.0917    0.0000 H   0  0  0  0  0  0  0  0  0  0  0  0
    1.7081    0.5343    0.0000 H   0  0  0  0  0  0  0  0  0  0  0  0
    2.3034    0.0025    0.0000 H   0  0  0  0  0  0  0  0  0  0  0  0
    1.6208    2.1034    0.0000 H   0  0  0  0  0  0  0  0  0  0  0  0
    1.4518    1.3232    0.0000 H   0  0  0  0  0  0  0  0  0  0  0  0
    2.9426    2.9534    0.0000 H   0  0  0  0  0  0  0  0  0  0  0  0
    2.1806    2.7155    0.0000 H   0  0  0  0  0  0  0  0  0  0  0  0
    8.0561    1.2050    0.0000 H   0  0  0  0  0  0  0  0  0  0  0  0
    8.6464    1.7406    0.0000 H   0  0  0  0  0  0  0  0  0  0  0  0
    9.3388    2.3689    0.0000 H   0  0  0  0  0  0  0  0  0  0  0  0
    9.9290    2.9045    0.0000 H   0  0  0  0  0  0  0  0  0  0  0  0
    7.1169    3.8063    0.0000 H   0  0  0  0  0  0  0  0  0  0  0  0
    7.2856    3.0273    0.0000 H   0  0  0  0  0  0  0  0  0  0  0  0
   10.1686    3.6517    0.0000 H   0  0  0  0  0  0  0  0  0  0  0  0
    9.9999    4.4307    0.0000 H   0  0  0  0  0  0  0  0  0  0  0  0
    7.9467    5.0891    0.0000 H   0  0  0  0  0  0  0  0  0  0  0  0
    7.3565    4.5535    0.0000 H   0  0  0  0  0  0  0  0  0  0  0  0
    4.7844   -0.6558    0.0000 H   0  0  0  0  0  0  0  0  0  0  0  0
    5.1249   -2.3541    0.0000 H   0  0  0  0  0  0  0  0  0  0  0  0
    7.2317   -0.5008    0.0000 H   0  0  0  0  0  0  0  0  0  0  0  0
    8.3017   -1.7171    0.0000 H   0  0  0  0  0  0  0  0  0  0  0  0
    7.7833   -3.2519    0.0000 H   0  0  0  0  0  0  0  0  0  0  0  0
    6.2683   -5.0908    0.0000 H   0  0  0  0  0  0  0  0  0  0  0  0
    7.1433   -5.1468    0.0000 H   0  0  0  0  0  0  0  0  0  0  0  0
    7.1993   -4.2718    0.0000 H   0  0  0  0  0  0  0  0  0  0  0  0
  1 13  1  0  0  0  0
  1 15  1  0  0  0  0
  2 21  1  0  0  0  0
  2 22  1  0  0  0  0
  3 26  1  0  0  0  0
  3 29  1  0  0  0  0
  4 16  1  0  0  0  0
  4 18  1  0  0  0  0
  4 19  1  0  0  0  0
  5 15  2  0  0  0  0
  5 20  1  0  0  0  0
  6 17  1  0  0  0  0
  6 20  2  0  0  0  0
  7 17  1  0  0  0  0
  7 23  1  0  0  0  0
  7 48  1  0  0  0  0
  8  9  1  0  0  0  0
  8 13  2  0  0  0  0
  8 14  1  0  0  0  0
  9 10  1  0  0  0  0
  9 30  1  0  0  0  0
  9 31  1  0  0  0  0
 10 11  1  0  0  0  0
 10 32  1  0  0  0  0
 10 33  1  0  0  0  0
 11 12  1  0  0  0  0
 11 34  1  0  0  0  0
 11 35  1  0  0  0  0
 12 13  1  0  0  0  0
 12 36  1  0  0  0  0
 12 37  1  0  0  0  0
 14 15  1  0  0  0  0
 14 17  2  0  0  0  0
 16 20  1  0  0  0  0
 16 38  1  0  0  0  0
 16 39  1  0  0  0  0
 18 21  1  0  0  0  0
 18 40  1  0  0  0  0
 18 41  1  0  0  0  0
 19 22  1  0  0  0  0
 19 42  1  0  0  0  0
 19 43  1  0  0  0  0
 21 44  1  0  0  0  0
 21 45  1  0  0  0  0
 22 46  1  0  0  0  0
 22 47  1  0  0  0  0
 23 24  2  0  0  0  0
 23 25  1  0  0  0  0
 24 26  1  0  0  0  0
 24 49  1  0  0  0  0
 25 27  2  0  0  0  0
 25 50  1  0  0  0  0
 26 28  2  0  0  0  0
 27 28  1  0  0  0  0
 27 51  1  0  0  0  0
 28 52  1  0  0  0  0
 29 53  1  0  0  0  0
 29 54  1  0  0  0  0
 29 55  1  0  0  0  0
M  END
> <PUBCHEM_COMPOUND_CID>
2101788

> <PUBCHEM_COMPOUND_CANONICALIZED>
1

> <PUBCHEM_CACTVS_COMPLEXITY>
535

> <PUBCHEM_CACTVS_HBOND_ACCEPTOR>
7

> <PUBCHEM_CACTVS_HBOND_DONOR>
1

> <PUBCHEM_CACTVS_ROTATABLE_BOND>
5

> <PUBCHEM_CACTVS_SUBSKEYS>
AAADceB7sABAAAAAAAAAAAAAAAAAASAAAAA8eIEAAAAAAFgB/AAAHgQQAAAADAzh2wYz99fIFAikAiZiZACD2KlhKrgJmDA+bJiObmLk+duXNCxu0Bv46CeQ0MMOgAAAAgAAAAAAAAAEAAgAAAAAAAAAAA==

> <PUBCHEM_IUPAC_OPENEYE_NAME>
N-(3-methoxyphenyl)-2-(morpholinomethyl)-5,6,7,8-tetrahydrobenzothiopheno[2,3-d]pyrimidin-4-amine

> <PUBCHEM_IUPAC_CAS_NAME>
N-(3-methoxyphenyl)-2-(4-morpholinylmethyl)-5,6,7,8-tetrahydro-[1]benzothiolo[2,3-d]pyrimidin-4-amine

> <PUBCHEM_IUPAC_NAME_MARKUP>
<I>N</I>-(3-methoxyphenyl)-2-(morpholin-4-ylmethyl)-5,6,7,8-tetrahydro-[1]benzothiolo[2,3-d]pyrimidin-4-amine

> <PUBCHEM_IUPAC_NAME>
N-(3-methoxyphenyl)-2-(morpholin-4-ylmethyl)-5,6,7,8-tetrahydro-[1]benzothiolo[2,3-d]pyrimidin-4-amine

> <PUBCHEM_IUPAC_SYSTEMATIC_NAME>
N-(3-methoxyphenyl)-2-(morpholin-4-ylmethyl)-5,6,7,8-tetrahydro-[1]benzothiolo[2,3-d]pyrimidin-4-amine

> <PUBCHEM_IUPAC_TRADITIONAL_NAME>
(3-methoxyphenyl)-[2-(morpholinomethyl)-5,6,7,8-tetrahydrobenzothiopheno[2,3-d]pyrimidin-4-yl]amine

> <PUBCHEM_IUPAC_INCHI>
InChI=1S/C22H26N4O2S/c1-27-16-6-4-5-15(13-16)23-21-20-17-7-2-3-8-18(17)29-22(20)25-19(24-21)14-26-9-11-28-12-10-26/h4-6,13H,2-3,7-12,14H2,1H3,(H,23,24,25)

> <PUBCHEM_IUPAC_INCHIKEY>
NZBQLTBYPJQBQR-UHFFFAOYSA-N

> <PUBCHEM_XLOGP3_AA>
4.1

> <PUBCHEM_EXACT_MASS>
410.17764726

> <PUBCHEM_MOLECULAR_FORMULA>
C22H26N4O2S

> <PUBCHEM_MOLECULAR_WEIGHT>
410.5

> <PUBCHEM_OPENEYE_CAN_SMILES>
COC1=CC=CC(=C1)NC2=C3C4=C(CCCC4)SC3=NC(=N2)CN5CCOCC5

> <PUBCHEM_OPENEYE_ISO_SMILES>
COC1=CC=CC(=C1)NC2=C3C4=C(CCCC4)SC3=NC(=N2)CN5CCOCC5

> <PUBCHEM_CACTVS_TPSA>
87.8

> <PUBCHEM_MONOISOTOPIC_WEIGHT>
410.17764726

> <PUBCHEM_TOTAL_CHARGE>
0

> <PUBCHEM_HEAVY_ATOM_COUNT>
29

> <PUBCHEM_ATOM_DEF_STEREO_COUNT>
0

> <PUBCHEM_ATOM_UDEF_STEREO_COUNT>
0

> <PUBCHEM_BOND_DEF_STEREO_COUNT>
0

> <PUBCHEM_BOND_UDEF_STEREO_COUNT>
0

> <PUBCHEM_ISOTOPIC_ATOM_COUNT>
0

> <PUBCHEM_COMPONENT_COUNT>
1

> <PUBCHEM_CACTVS_TAUTO_COUNT>
-1

> <PUBCHEM_COORDINATE_TYPE>
1
5
255

> <PUBCHEM_BONDANNOTATIONS>
1  13  8
1  15  8
14  15  8
14  17  8
23  24  8
23  25  8
24  26  8
25  27  8
26  28  8
27  28  8
5  15  8
5  20  8
6  17  8
6  20  8
8  13  8
8  14  8

$$$$
