44415568
  -OEChem-09292322282D

 59 63  0     0  0  0  0  0  0999 V2000
    8.7204    1.1127    0.0000 Cl  0  0  0  0  0  0  0  0  0  0  0  0
    3.1509   -5.2142    0.0000 F   0  0  0  0  0  0  0  0  0  0  0  0
    4.5169   -5.5803    0.0000 F   0  0  0  0  0  0  0  0  0  0  0  0
    3.5169   -3.8482    0.0000 F   0  0  0  0  0  0  0  0  0  0  0  0
    6.6150   -1.2143    0.0000 O   0  0  0  0  0  0  0  0  0  0  0  0
    3.9491    2.8774    0.0000 N   0  0  0  0  0  0  0  0  0  0  0  0
    3.0814    4.6793    0.0000 N   0  0  0  0  0  0  0  0  0  0  0  0
    4.8830   -0.2143    0.0000 N   0  0  0  0  0  0  0  0  0  0  0  0
    5.3830    1.9764    0.0000 N   0  0  0  0  0  0  0  0  0  0  0  0
    4.8830   -1.2143    0.0000 N   0  0  0  0  0  0  0  0  0  0  0  0
    2.9519    2.9521    0.0000 C   0  0  0  0  0  0  0  0  0  0  0  0
    4.5125    3.7036    0.0000 C   0  0  0  0  0  0  0  0  0  0  0  0
    2.5180    3.8531    0.0000 C   0  0  0  0  0  0  0  0  0  0  0  0
    4.0786    4.6046    0.0000 C   0  0  0  0  0  0  0  0  0  0  0  0
    4.3830    1.9764    0.0000 C   0  0  0  0  0  0  0  0  0  0  0  0
    3.7595    1.1946    0.0000 C   0  0  0  0  0  0  0  0  0  0  0  0
    2.6475    5.5803    0.0000 C   0  0  0  0  0  0  0  0  0  0  0  0
    3.9820    0.2196    0.0000 C   0  0  0  0  0  0  0  0  0  0  0  0
    5.7840    0.2196    0.0000 C   0  0  0  0  0  0  0  0  0  0  0  0
    6.0065    1.1946    0.0000 C   0  0  0  0  0  0  0  0  0  0  0  0
    2.7690    1.5169    0.0000 C   0  0  0  0  0  0  0  0  0  0  0  0
    3.2295   -0.5005    0.0000 C   0  0  0  0  0  0  0  0  0  0  0  0
    2.0000    0.8143    0.0000 C   0  0  0  0  0  0  0  0  0  0  0  0
    6.5365   -0.5006    0.0000 C   0  0  0  0  0  0  0  0  0  0  0  0
    6.9970    1.5169    0.0000 C   0  0  0  0  0  0  0  0  0  0  0  0
    2.2318   -0.2012    0.0000 C   0  0  0  0  0  0  0  0  0  0  0  0
    7.5342   -0.2012    0.0000 C   0  0  0  0  0  0  0  0  0  0  0  0
    7.7660    0.8143    0.0000 C   0  0  0  0  0  0  0  0  0  0  0  0
    5.7490   -1.7143    0.0000 C   0  0  0  0  0  0  0  0  0  0  0  0
    5.7490   -2.7143    0.0000 C   0  0  0  0  0  0  0  0  0  0  0  0
    4.8830   -3.2143    0.0000 C   0  0  0  0  0  0  0  0  0  0  0  0
    6.6150   -3.2143    0.0000 C   0  0  0  0  0  0  0  0  0  0  0  0
    4.8830   -4.2143    0.0000 C   0  0  0  0  0  0  0  0  0  0  0  0
    6.6150   -4.2143    0.0000 C   0  0  0  0  0  0  0  0  0  0  0  0
    5.7490   -4.7143    0.0000 C   0  0  0  0  0  0  0  0  0  0  0  0
    4.0169   -4.7142    0.0000 C   0  0  0  0  0  0  0  0  0  0  0  0
    2.3551    2.7842    0.0000 H   0  0  0  0  0  0  0  0  0  0  0  0
    3.0137    2.3352    0.0000 H   0  0  0  0  0  0  0  0  0  0  0  0
    4.9563    3.2707    0.0000 H   0  0  0  0  0  0  0  0  0  0  0  0
    5.0159    4.0655    0.0000 H   0  0  0  0  0  0  0  0  0  0  0  0
    2.0742    4.2860    0.0000 H   0  0  0  0  0  0  0  0  0  0  0  0
    2.0146    3.4912    0.0000 H   0  0  0  0  0  0  0  0  0  0  0  0
    4.6754    4.7725    0.0000 H   0  0  0  0  0  0  0  0  0  0  0  0
    4.0168    5.2215    0.0000 H   0  0  0  0  0  0  0  0  0  0  0  0
    3.2061    5.8493    0.0000 H   0  0  0  0  0  0  0  0  0  0  0  0
    2.3785    6.1389    0.0000 H   0  0  0  0  0  0  0  0  0  0  0  0
    2.0889    5.3113    0.0000 H   0  0  0  0  0  0  0  0  0  0  0  0
    2.6380    2.1229    0.0000 H   0  0  0  0  0  0  0  0  0  0  0  0
    3.3744   -1.1034    0.0000 H   0  0  0  0  0  0  0  0  0  0  0  0
    1.4083    0.9994    0.0000 H   0  0  0  0  0  0  0  0  0  0  0  0
    4.3460   -1.5243    0.0000 H   0  0  0  0  0  0  0  0  0  0  0  0
    6.3916   -1.1034    0.0000 H   0  0  0  0  0  0  0  0  0  0  0  0
    7.1280    2.1229    0.0000 H   0  0  0  0  0  0  0  0  0  0  0  0
    1.7789   -0.6246    0.0000 H   0  0  0  0  0  0  0  0  0  0  0  0
    7.9871   -0.6247    0.0000 H   0  0  0  0  0  0  0  0  0  0  0  0
    4.3460   -2.9043    0.0000 H   0  0  0  0  0  0  0  0  0  0  0  0
    7.1520   -2.9043    0.0000 H   0  0  0  0  0  0  0  0  0  0  0  0
    7.1520   -4.5243    0.0000 H   0  0  0  0  0  0  0  0  0  0  0  0
    5.7490   -5.3343    0.0000 H   0  0  0  0  0  0  0  0  0  0  0  0
  1 28  1  0  0  0  0
  2 36  1  0  0  0  0
  3 36  1  0  0  0  0
  4 36  1  0  0  0  0
  5 29  2  0  0  0  0
  6 11  1  0  0  0  0
  6 12  1  0  0  0  0
  6 15  1  0  0  0  0
  7 13  1  0  0  0  0
  7 14  1  0  0  0  0
  7 17  1  0  0  0  0
  8 10  1  0  0  0  0
  8 18  1  0  0  0  0
  8 19  1  0  0  0  0
  9 15  2  0  0  0  0
  9 20  1  0  0  0  0
 10 29  1  0  0  0  0
 10 51  1  0  0  0  0
 11 13  1  0  0  0  0
 11 37  1  0  0  0  0
 11 38  1  0  0  0  0
 12 14  1  0  0  0  0
 12 39  1  0  0  0  0
 12 40  1  0  0  0  0
 13 41  1  0  0  0  0
 13 42  1  0  0  0  0
 14 43  1  0  0  0  0
 14 44  1  0  0  0  0
 15 16  1  0  0  0  0
 16 18  1  0  0  0  0
 16 21  2  0  0  0  0
 17 45  1  0  0  0  0
 17 46  1  0  0  0  0
 17 47  1  0  0  0  0
 18 22  2  0  0  0  0
 19 20  2  0  0  0  0
 19 24  1  0  0  0  0
 20 25  1  0  0  0  0
 21 23  1  0  0  0  0
 21 48  1  0  0  0  0
 22 26  1  0  0  0  0
 22 49  1  0  0  0  0
 23 26  2  0  0  0  0
 23 50  1  0  0  0  0
 24 27  2  0  0  0  0
 24 52  1  0  0  0  0
 25 28  2  0  0  0  0
 25 53  1  0  0  0  0
 26 54  1  0  0  0  0
 27 28  1  0  0  0  0
 27 55  1  0  0  0  0
 29 30  1  0  0  0  0
 30 31  2  0  0  0  0
 30 32  1  0  0  0  0
 31 33  1  0  0  0  0
 31 56  1  0  0  0  0
 32 34  2  0  0  0  0
 32 57  1  0  0  0  0
 33 35  2  0  0  0  0
 33 36  1  0  0  0  0
 34 35  1  0  0  0  0
 34 58  1  0  0  0  0
 35 59  1  0  0  0  0
M  END
> <PUBCHEM_COMPOUND_CID>
44415568

> <PUBCHEM_COMPOUND_CANONICALIZED>
1

> <PUBCHEM_CACTVS_COMPLEXITY>
818

> <PUBCHEM_CACTVS_HBOND_ACCEPTOR>
7

> <PUBCHEM_CACTVS_HBOND_DONOR>
1

> <PUBCHEM_CACTVS_ROTATABLE_BOND>
3

> <PUBCHEM_CACTVS_SUBSKEYS>
AAADceB7oYAEAAAAAAAAAAAAAAAAAAAAAAA8YMEABAAAAAABUAAAHwIYAAAADArBmDQzwINiAACoAidydACCBAElBwAbqAEodtgIYPLB35GUIQhggADIyYcYiECOAABCAAICACAAAIQABAQAQAAAAAAAAA==

> <PUBCHEM_IUPAC_OPENEYE_NAME>
N-[3-chloro-6-(4-methylpiperazin-1-yl)benzo[b][1,4]benzodiazepin-11-yl]-3-(trifluoromethyl)benzamide

> <PUBCHEM_IUPAC_CAS_NAME>
N-[3-chloro-6-(4-methyl-1-piperazinyl)-11-benzo[b][1,4]benzodiazepinyl]-3-(trifluoromethyl)benzamide

> <PUBCHEM_IUPAC_NAME_MARKUP>
<I>N</I>-[3-chloro-6-(4-methylpiperazin-1-yl)benzo[b][1,4]benzodiazepin-11-yl]-3-(trifluoromethyl)benzamide

> <PUBCHEM_IUPAC_NAME>
N-[3-chloro-6-(4-methylpiperazin-1-yl)benzo[b][1,4]benzodiazepin-11-yl]-3-(trifluoromethyl)benzamide

> <PUBCHEM_IUPAC_SYSTEMATIC_NAME>
N-[3-chloranyl-6-(4-methylpiperazin-1-yl)benzo[b][1,4]benzodiazepin-11-yl]-3-(trifluoromethyl)benzamide

> <PUBCHEM_IUPAC_TRADITIONAL_NAME>
N-[3-chloro-6-(4-methylpiperazino)benzo[b][1,4]benzodiazepin-11-yl]-3-(trifluoromethyl)benzamide

> <PUBCHEM_IUPAC_INCHI>
InChI=1S/C26H23ClF3N5O/c1-33-11-13-34(14-12-33)24-20-7-2-3-8-22(20)35(23-10-9-19(27)16-21(23)31-24)32-25(36)17-5-4-6-18(15-17)26(28,29)30/h2-10,15-16H,11-14H2,1H3,(H,32,36)

> <PUBCHEM_IUPAC_INCHIKEY>
SAOAAHJLTCTWAK-UHFFFAOYSA-N

> <PUBCHEM_XLOGP3_AA>
5.3

> <PUBCHEM_EXACT_MASS>
513.1543226

> <PUBCHEM_MOLECULAR_FORMULA>
C26H23ClF3N5O

> <PUBCHEM_MOLECULAR_WEIGHT>
513.9

> <PUBCHEM_OPENEYE_CAN_SMILES>
CN1CCN(CC1)C2=NC3=C(C=CC(=C3)Cl)N(C4=CC=CC=C42)NC(=O)C5=CC(=CC=C5)C(F)(F)F

> <PUBCHEM_OPENEYE_ISO_SMILES>
CN1CCN(CC1)C2=NC3=C(C=CC(=C3)Cl)N(C4=CC=CC=C42)NC(=O)C5=CC(=CC=C5)C(F)(F)F

> <PUBCHEM_CACTVS_TPSA>
51.2

> <PUBCHEM_MONOISOTOPIC_WEIGHT>
513.1543226

> <PUBCHEM_TOTAL_CHARGE>
0

> <PUBCHEM_HEAVY_ATOM_COUNT>
36

> <PUBCHEM_ATOM_DEF_STEREO_COUNT>
0

> <PUBCHEM_ATOM_UDEF_STEREO_COUNT>
0

> <PUBCHEM_BOND_DEF_STEREO_COUNT>
0

> <PUBCHEM_BOND_UDEF_STEREO_COUNT>
0

> <PUBCHEM_ISOTOPIC_ATOM_COUNT>
0

> <PUBCHEM_COMPONENT_COUNT>
1

> <PUBCHEM_CACTVS_TAUTO_COUNT>
-1

> <PUBCHEM_COORDINATE_TYPE>
1
5
255

> <PUBCHEM_BONDANNOTATIONS>
16  18  8
16  21  8
18  22  8
19  20  8
19  24  8
20  25  8
21  23  8
22  26  8
23  26  8
24  27  8
25  28  8
27  28  8
30  31  8
30  32  8
31  33  8
32  34  8
33  35  8
34  35  8

$$$$
