118626088
  -OEChem-09292322392D

 68 73  0     1  0  0  0  0  0999 V2000
    3.0000   -0.0323    0.0000 S   0  0  0  0  0  0  0  0  0  0  0  0
    2.0000   -0.0323    0.0000 O   0  0  0  0  0  0  0  0  0  0  0  0
    4.0000   -0.0323    0.0000 O   0  0  0  0  0  0  0  0  0  0  0  0
    9.8183    2.3641    0.0000 O   0  0  0  0  0  0  0  0  0  0  0  0
   11.7864    1.7246    0.0000 O   0  0  0  0  0  0  0  0  0  0  0  0
    3.0000    0.9677    0.0000 N   0  0  3  0  0  0  0  0  0  0  0  0
    6.4543    1.6066    0.0000 N   0  0  0  0  0  0  0  0  0  0  0  0
    8.3564    0.9885    0.0000 N   0  0  0  0  0  0  0  0  0  0  0  0
    4.7600   -3.0670    0.0000 N   0  0  0  0  0  0  0  0  0  0  0  0
    3.8090    1.5555    0.0000 C   0  0  2  0  0  0  0  0  0  0  0  0
    3.5000    2.5065    0.0000 C   0  0  0  0  0  0  0  0  0  0  0  0
    4.7601    1.2464    0.0000 C   0  0  0  0  0  0  0  0  0  0  0  0
    2.5000    2.5065    0.0000 C   0  0  0  0  0  0  0  0  0  0  0  0
    2.1910    1.5555    0.0000 C   0  0  0  0  0  0  0  0  0  0  0  0
    5.5032    1.9156    0.0000 C   0  0  0  0  0  0  0  0  0  0  0  0
    6.6622    0.6284    0.0000 C   0  0  0  0  0  0  0  0  0  0  0  0
    7.1974    2.2757    0.0000 C   0  0  0  0  0  0  0  0  0  0  0  0
    7.6132    0.3194    0.0000 C   0  0  0  0  0  0  0  0  0  0  0  0
    8.1485    1.9667    0.0000 C   0  0  0  0  0  0  0  0  0  0  0  0
    3.0000   -1.0323    0.0000 C   0  0  0  0  0  0  0  0  0  0  0  0
    9.3074    0.6795    0.0000 C   0  0  0  0  0  0  0  0  0  0  0  0
    3.8660   -1.5323    0.0000 C   0  0  0  0  0  0  0  0  0  0  0  0
    2.1340   -1.5323    0.0000 C   0  0  0  0  0  0  0  0  0  0  0  0
   10.0506    1.3486    0.0000 C   0  0  0  0  0  0  0  0  0  0  0  0
    3.8660   -2.5323    0.0000 C   0  0  0  0  0  0  0  0  0  0  0  0
    9.5154   -0.2986    0.0000 C   0  0  0  0  0  0  0  0  0  0  0  0
    2.1340   -2.5323    0.0000 C   0  0  0  0  0  0  0  0  0  0  0  0
    4.7600   -0.9977    0.0000 C   0  0  0  0  0  0  0  0  0  0  0  0
   11.0016    1.0396    0.0000 C   0  0  0  0  0  0  0  0  0  0  0  0
    3.0000   -3.0323    0.0000 C   0  0  0  0  0  0  0  0  0  0  0  0
   10.4664   -0.6077    0.0000 C   0  0  0  0  0  0  0  0  0  0  0  0
   11.2096    0.0615    0.0000 C   0  0  0  0  0  0  0  0  0  0  0  0
   10.5870    3.0670    0.0000 C   0  0  0  0  0  0  0  0  0  0  0  0
    5.6660   -1.5115    0.0000 C   0  0  0  0  0  0  0  0  0  0  0  0
   11.5777    2.7451    0.0000 C   0  0  0  0  0  0  0  0  0  0  0  0
    5.6660   -2.5531    0.0000 C   0  0  0  0  0  0  0  0  0  0  0  0
    3.9060    0.9431    0.0000 H   0  0  0  0  0  0  0  0  0  0  0  0
    4.1064    2.6354    0.0000 H   0  0  0  0  0  0  0  0  0  0  0  0
    3.4352    3.1231    0.0000 H   0  0  0  0  0  0  0  0  0  0  0  0
    4.4690    0.6990    0.0000 H   0  0  0  0  0  0  0  0  0  0  0  0
    5.2486    0.8647    0.0000 H   0  0  0  0  0  0  0  0  0  0  0  0
    2.5648    3.1231    0.0000 H   0  0  0  0  0  0  0  0  0  0  0  0
    1.8936    2.6354    0.0000 H   0  0  0  0  0  0  0  0  0  0  0  0
    1.6246    1.8076    0.0000 H   0  0  0  0  0  0  0  0  0  0  0  0
    1.8810    1.0185    0.0000 H   0  0  0  0  0  0  0  0  0  0  0  0
    5.7943    2.4630    0.0000 H   0  0  0  0  0  0  0  0  0  0  0  0
    5.0146    2.2973    0.0000 H   0  0  0  0  0  0  0  0  0  0  0  0
    6.0426    0.6068    0.0000 H   0  0  0  0  0  0  0  0  0  0  0  0
    6.5759    0.0144    0.0000 H   0  0  0  0  0  0  0  0  0  0  0  0
    7.4885    2.8231    0.0000 H   0  0  0  0  0  0  0  0  0  0  0  0
    6.7088    2.6574    0.0000 H   0  0  0  0  0  0  0  0  0  0  0  0
    7.3222   -0.2280    0.0000 H   0  0  0  0  0  0  0  0  0  0  0  0
    8.1018   -0.0623    0.0000 H   0  0  0  0  0  0  0  0  0  0  0  0
    8.7681    1.9883    0.0000 H   0  0  0  0  0  0  0  0  0  0  0  0
    8.2348    2.5806    0.0000 H   0  0  0  0  0  0  0  0  0  0  0  0
    1.5970   -1.2223    0.0000 H   0  0  0  0  0  0  0  0  0  0  0  0
    9.0546   -0.7135    0.0000 H   0  0  0  0  0  0  0  0  0  0  0  0
    1.5970   -2.8423    0.0000 H   0  0  0  0  0  0  0  0  0  0  0  0
    4.7528   -0.3777    0.0000 H   0  0  0  0  0  0  0  0  0  0  0  0
    3.0000   -3.6523    0.0000 H   0  0  0  0  0  0  0  0  0  0  0  0
   10.5953   -1.2141    0.0000 H   0  0  0  0  0  0  0  0  0  0  0  0
   11.7992   -0.1301    0.0000 H   0  0  0  0  0  0  0  0  0  0  0  0
   10.8767    3.6152    0.0000 H   0  0  0  0  0  0  0  0  0  0  0  0
   10.0965    3.4462    0.0000 H   0  0  0  0  0  0  0  0  0  0  0  0
    6.2018   -1.1994    0.0000 H   0  0  0  0  0  0  0  0  0  0  0  0
   12.1974    2.7636    0.0000 H   0  0  0  0  0  0  0  0  0  0  0  0
   11.6655    3.3588    0.0000 H   0  0  0  0  0  0  0  0  0  0  0  0
    6.2018   -2.8652    0.0000 H   0  0  0  0  0  0  0  0  0  0  0  0
  1  2  2  0  0  0  0
  1  3  2  0  0  0  0
  1  6  1  0  0  0  0
  1 20  1  0  0  0  0
  4 24  1  0  0  0  0
  4 33  1  0  0  0  0
  5 29  1  0  0  0  0
  5 35  1  0  0  0  0
  6 10  1  0  0  0  0
  6 14  1  0  0  0  0
  7 15  1  0  0  0  0
  7 16  1  0  0  0  0
  7 17  1  0  0  0  0
  8 18  1  0  0  0  0
  8 19  1  0  0  0  0
  8 21  1  0  0  0  0
  9 25  1  0  0  0  0
  9 36  2  0  0  0  0
 10 11  1  0  0  0  0
 10 12  1  6  0  0  0
 10 37  1  0  0  0  0
 11 13  1  0  0  0  0
 11 38  1  0  0  0  0
 11 39  1  0  0  0  0
 12 15  1  0  0  0  0
 12 40  1  0  0  0  0
 12 41  1  0  0  0  0
 13 14  1  0  0  0  0
 13 42  1  0  0  0  0
 13 43  1  0  0  0  0
 14 44  1  0  0  0  0
 14 45  1  0  0  0  0
 15 46  1  0  0  0  0
 15 47  1  0  0  0  0
 16 18  1  0  0  0  0
 16 48  1  0  0  0  0
 16 49  1  0  0  0  0
 17 19  1  0  0  0  0
 17 50  1  0  0  0  0
 17 51  1  0  0  0  0
 18 52  1  0  0  0  0
 18 53  1  0  0  0  0
 19 54  1  0  0  0  0
 19 55  1  0  0  0  0
 20 22  1  0  0  0  0
 20 23  2  0  0  0  0
 21 24  2  0  0  0  0
 21 26  1  0  0  0  0
 22 25  2  0  0  0  0
 22 28  1  0  0  0  0
 23 27  1  0  0  0  0
 23 56  1  0  0  0  0
 24 29  1  0  0  0  0
 25 30  1  0  0  0  0
 26 31  2  0  0  0  0
 26 57  1  0  0  0  0
 27 30  2  0  0  0  0
 27 58  1  0  0  0  0
 28 34  2  0  0  0  0
 28 59  1  0  0  0  0
 29 32  2  0  0  0  0
 30 60  1  0  0  0  0
 31 32  1  0  0  0  0
 31 61  1  0  0  0  0
 32 62  1  0  0  0  0
 33 35  1  0  0  0  0
 33 63  1  0  0  0  0
 33 64  1  0  0  0  0
 34 36  1  0  0  0  0
 34 65  1  0  0  0  0
 35 66  1  0  0  0  0
 35 67  1  0  0  0  0
 36 68  1  0  0  0  0
M  END
> <PUBCHEM_COMPOUND_CID>
118626088

> <PUBCHEM_COMPOUND_CANONICALIZED>
1

> <PUBCHEM_CACTVS_COMPLEXITY>
830

> <PUBCHEM_CACTVS_HBOND_ACCEPTOR>
8

> <PUBCHEM_CACTVS_HBOND_DONOR>
0

> <PUBCHEM_CACTVS_ROTATABLE_BOND>
6

> <PUBCHEM_CACTVS_SUBSKEYS>
AAADcfB7uABAAAAAAAAAAAAAAAAAAWAAAAA8eJECAAAAAACx9AAAHgQAQAAADCzh3gY8x/MIFAKgAzRnRHDCiDAxIiAI2Dg/7JgPZuLE8ZuXOC7mwBna6AeQ0IMOAAAAAiAGUAAAAAAEQAygAAAAAAAAAA==

> <PUBCHEM_IUPAC_OPENEYE_NAME>
5-[(2R)-2-[2-[4-(2,3-dihydro-1,4-benzodioxin-5-yl)piperazin-1-yl]ethyl]pyrrolidin-1-yl]sulfonylquinoline

> <PUBCHEM_IUPAC_CAS_NAME>
5-[[(2R)-2-[2-[4-(2,3-dihydro-1,4-benzodioxin-5-yl)-1-piperazinyl]ethyl]-1-pyrrolidinyl]sulfonyl]quinoline

> <PUBCHEM_IUPAC_NAME_MARKUP>
5-[(2<I>R</I>)-2-[2-[4-(2,3-dihydro-1,4-benzodioxin-5-yl)piperazin-1-yl]ethyl]pyrrolidin-1-yl]sulfonylquinoline

> <PUBCHEM_IUPAC_NAME>
5-[(2R)-2-[2-[4-(2,3-dihydro-1,4-benzodioxin-5-yl)piperazin-1-yl]ethyl]pyrrolidin-1-yl]sulfonylquinoline

> <PUBCHEM_IUPAC_SYSTEMATIC_NAME>
5-[(2R)-2-[2-[4-(2,3-dihydro-1,4-benzodioxin-5-yl)piperazin-1-yl]ethyl]pyrrolidin-1-yl]sulfonylquinoline

> <PUBCHEM_IUPAC_TRADITIONAL_NAME>
5-[(2R)-2-[2-[4-(2,3-dihydro-1,4-benzodioxin-5-yl)piperazino]ethyl]pyrrolidino]sulfonylquinoline

> <PUBCHEM_IUPAC_INCHI>
InChI=1S/C27H32N4O4S/c32-36(33,26-10-1-7-23-22(26)6-3-12-28-23)31-13-4-5-21(31)11-14-29-15-17-30(18-16-29)24-8-2-9-25-27(24)35-20-19-34-25/h1-3,6-10,12,21H,4-5,11,13-20H2/t21-/m1/s1

> <PUBCHEM_IUPAC_INCHIKEY>
GXHLJIAHGPNYES-OAQYLSRUSA-N

> <PUBCHEM_XLOGP3_AA>
3.6

> <PUBCHEM_EXACT_MASS>
508.21442669

> <PUBCHEM_MOLECULAR_FORMULA>
C27H32N4O4S

> <PUBCHEM_MOLECULAR_WEIGHT>
508.6

> <PUBCHEM_OPENEYE_CAN_SMILES>
C1CC(N(C1)S(=O)(=O)C2=CC=CC3=C2C=CC=N3)CCN4CCN(CC4)C5=C6C(=CC=C5)OCCO6

> <PUBCHEM_OPENEYE_ISO_SMILES>
C1C[C@@H](N(C1)S(=O)(=O)C2=CC=CC3=C2C=CC=N3)CCN4CCN(CC4)C5=C6C(=CC=C5)OCCO6

> <PUBCHEM_CACTVS_TPSA>
83.6

> <PUBCHEM_MONOISOTOPIC_WEIGHT>
508.21442669

> <PUBCHEM_TOTAL_CHARGE>
0

> <PUBCHEM_HEAVY_ATOM_COUNT>
36

> <PUBCHEM_ATOM_DEF_STEREO_COUNT>
1

> <PUBCHEM_ATOM_UDEF_STEREO_COUNT>
0

> <PUBCHEM_BOND_DEF_STEREO_COUNT>
0

> <PUBCHEM_BOND_UDEF_STEREO_COUNT>
0

> <PUBCHEM_ISOTOPIC_ATOM_COUNT>
0

> <PUBCHEM_COMPONENT_COUNT>
1

> <PUBCHEM_CACTVS_TAUTO_COUNT>
-1

> <PUBCHEM_COORDINATE_TYPE>
1
5
255

> <PUBCHEM_BONDANNOTATIONS>
10  12  6
20  22  8
20  23  8
21  24  8
21  26  8
22  25  8
22  28  8
23  27  8
24  29  8
25  30  8
26  31  8
27  30  8
28  34  8
29  32  8
31  32  8
34  36  8
9  25  8
9  36  8

$$$$
