166630373
  -OEChem-09292322442D

 59 63  0     1  0  0  0  0  0999 V2000
   10.1248   -2.6029    0.0000 S   0  0  0  0  0  0  0  0  0  0  0  0
    2.0000    3.7229    0.0000 F   0  0  0  0  0  0  0  0  0  0  0  0
    9.6248   -1.7369    0.0000 O   0  0  0  0  0  0  0  0  0  0  0  0
   10.6248   -3.4690    0.0000 O   0  0  0  0  0  0  0  0  0  0  0  0
    2.9338    0.2983    0.0000 O   0  0  0  0  0  0  0  0  0  0  0  0
    7.3101   -1.4005    0.0000 N   0  0  3  0  0  0  0  0  0  0  0  0
    9.2588   -3.1029    0.0000 N   0  0  0  0  0  0  0  0  0  0  0  0
    3.8430   -0.1037    0.0000 N   0  0  0  0  0  0  0  0  0  0  0  0
    6.8101   -2.2665    0.0000 C   0  0  2  0  0  0  0  0  0  0  0  0
    8.3927   -2.6029    0.0000 C   0  0  1  0  0  0  0  0  0  0  0  0
    7.4792   -3.0097    0.0000 C   0  0  0  0  0  0  0  0  0  0  0  0
    8.2882   -1.6084    0.0000 C   0  0  0  0  0  0  0  0  0  0  0  0
    6.9033   -0.4870    0.0000 C   0  0  0  0  0  0  0  0  0  0  0  0
    5.8155   -2.3710    0.0000 C   0  0  0  0  0  0  0  0  0  0  0  0
    5.9088   -0.3824    0.0000 C   0  0  0  0  0  0  0  0  0  0  0  0
    5.5021    0.5311    0.0000 C   0  0  0  0  0  0  0  0  0  0  0  0
   10.9908   -2.1029    0.0000 C   0  0  0  0  0  0  0  0  0  0  0  0
    4.5075    0.6356    0.0000 C   0  0  0  0  0  0  0  0  0  0  0  0
   11.8568   -2.6029    0.0000 C   0  0  0  0  0  0  0  0  0  0  0  0
   10.9908   -1.1029    0.0000 C   0  0  0  0  0  0  0  0  0  0  0  0
    4.0113    1.4970    0.0000 C   0  0  0  0  0  0  0  0  0  0  0  0
   12.7229   -2.1029    0.0000 C   0  0  0  0  0  0  0  0  0  0  0  0
   11.8568   -0.6029    0.0000 C   0  0  0  0  0  0  0  0  0  0  0  0
   12.7229   -1.1029    0.0000 C   0  0  0  0  0  0  0  0  0  0  0  0
    3.0335    1.2874    0.0000 C   0  0  0  0  0  0  0  0  0  0  0  0
    4.3186    2.4486    0.0000 C   0  0  0  0  0  0  0  0  0  0  0  0
   13.6168   -2.6376    0.0000 C   0  0  0  0  0  0  0  0  0  0  0  0
    2.3630    2.0294    0.0000 C   0  0  0  0  0  0  0  0  0  0  0  0
   13.6168   -0.5683    0.0000 C   0  0  0  0  0  0  0  0  0  0  0  0
    3.6482    3.1906    0.0000 C   0  0  0  0  0  0  0  0  0  0  0  0
    2.6704    2.9810    0.0000 C   0  0  0  0  0  0  0  0  0  0  0  0
   14.5229   -2.1237    0.0000 C   0  0  0  0  0  0  0  0  0  0  0  0
   14.5229   -1.0821    0.0000 C   0  0  0  0  0  0  0  0  0  0  0  0
    6.4724   -1.7466    0.0000 H   0  0  0  0  0  0  0  0  0  0  0  0
    8.9127   -2.2653    0.0000 H   0  0  0  0  0  0  0  0  0  0  0  0
    6.9776   -3.3741    0.0000 H   0  0  0  0  0  0  0  0  0  0  0  0
    7.7892   -3.5466    0.0000 H   0  0  0  0  0  0  0  0  0  0  0  0
    8.9082   -1.6084    0.0000 H   0  0  0  0  0  0  0  0  0  0  0  0
    8.3530   -0.9918    0.0000 H   0  0  0  0  0  0  0  0  0  0  0  0
    7.5049   -0.3370    0.0000 H   0  0  0  0  0  0  0  0  0  0  0  0
    6.8601    0.1315    0.0000 H   0  0  0  0  0  0  0  0  0  0  0  0
    5.7507   -1.7544    0.0000 H   0  0  0  0  0  0  0  0  0  0  0  0
    5.1989   -2.4359    0.0000 H   0  0  0  0  0  0  0  0  0  0  0  0
    5.8803   -2.9877    0.0000 H   0  0  0  0  0  0  0  0  0  0  0  0
    9.2588   -3.7229    0.0000 H   0  0  0  0  0  0  0  0  0  0  0  0
    5.3072   -0.5324    0.0000 H   0  0  0  0  0  0  0  0  0  0  0  0
    5.9520   -1.0009    0.0000 H   0  0  0  0  0  0  0  0  0  0  0  0
    6.1036    0.6811    0.0000 H   0  0  0  0  0  0  0  0  0  0  0  0
    5.4588    1.1496    0.0000 H   0  0  0  0  0  0  0  0  0  0  0  0
   11.8568   -3.2229    0.0000 H   0  0  0  0  0  0  0  0  0  0  0  0
   10.4539   -0.7929    0.0000 H   0  0  0  0  0  0  0  0  0  0  0  0
   11.8568    0.0171    0.0000 H   0  0  0  0  0  0  0  0  0  0  0  0
    4.9248    2.5785    0.0000 H   0  0  0  0  0  0  0  0  0  0  0  0
   13.6096   -3.2576    0.0000 H   0  0  0  0  0  0  0  0  0  0  0  0
   13.6096    0.0517    0.0000 H   0  0  0  0  0  0  0  0  0  0  0  0
    1.7568    1.8994    0.0000 H   0  0  0  0  0  0  0  0  0  0  0  0
    3.8388    3.7805    0.0000 H   0  0  0  0  0  0  0  0  0  0  0  0
   15.0586   -2.4358    0.0000 H   0  0  0  0  0  0  0  0  0  0  0  0
   15.0586   -0.7700    0.0000 H   0  0  0  0  0  0  0  0  0  0  0  0
  1  3  2  0  0  0  0
  1  4  2  0  0  0  0
  1  7  1  0  0  0  0
  1 17  1  0  0  0  0
  2 31  1  0  0  0  0
  5  8  1  0  0  0  0
  5 25  1  0  0  0  0
  6  9  1  0  0  0  0
  6 12  1  0  0  0  0
  6 13  1  0  0  0  0
 10  7  1  1  0  0  0
  7 45  1  0  0  0  0
  8 18  2  0  0  0  0
  9 11  1  0  0  0  0
  9 14  1  6  0  0  0
  9 34  1  0  0  0  0
 10 11  1  0  0  0  0
 10 12  1  0  0  0  0
 10 35  1  0  0  0  0
 11 36  1  0  0  0  0
 11 37  1  0  0  0  0
 12 38  1  0  0  0  0
 12 39  1  0  0  0  0
 13 15  1  0  0  0  0
 13 40  1  0  0  0  0
 13 41  1  0  0  0  0
 14 42  1  0  0  0  0
 14 43  1  0  0  0  0
 14 44  1  0  0  0  0
 15 16  1  0  0  0  0
 15 46  1  0  0  0  0
 15 47  1  0  0  0  0
 16 18  1  0  0  0  0
 16 48  1  0  0  0  0
 16 49  1  0  0  0  0
 17 19  2  0  0  0  0
 17 20  1  0  0  0  0
 18 21  1  0  0  0  0
 19 22  1  0  0  0  0
 19 50  1  0  0  0  0
 20 23  2  0  0  0  0
 20 51  1  0  0  0  0
 21 25  2  0  0  0  0
 21 26  1  0  0  0  0
 22 24  1  0  0  0  0
 22 27  2  0  0  0  0
 23 24  1  0  0  0  0
 23 52  1  0  0  0  0
 24 29  2  0  0  0  0
 25 28  1  0  0  0  0
 26 30  2  0  0  0  0
 26 53  1  0  0  0  0
 27 32  1  0  0  0  0
 27 54  1  0  0  0  0
 28 31  2  0  0  0  0
 28 56  1  0  0  0  0
 29 33  1  0  0  0  0
 29 55  1  0  0  0  0
 30 31  1  0  0  0  0
 30 57  1  0  0  0  0
 32 33  2  0  0  0  0
 32 58  1  0  0  0  0
 33 59  1  0  0  0  0
M  END
> <PUBCHEM_COMPOUND_CID>
166630373

> <PUBCHEM_COMPOUND_CANONICALIZED>
1

> <PUBCHEM_CACTVS_COMPLEXITY>
763

> <PUBCHEM_CACTVS_HBOND_ACCEPTOR>
7

> <PUBCHEM_CACTVS_HBOND_DONOR>
1

> <PUBCHEM_CACTVS_ROTATABLE_BOND>
7

> <PUBCHEM_CACTVS_SUBSKEYS>
AAADceB7MQBAAAAAAAAAAAAAAAAAAWLAAAAwYMAAAAAAAFjB9AAAHwQUQAAADCzB3gwyh9NQAAKpA6RyQnDCABAkIAAomLk+TNoIZrqA1ZOUMYBm0BmIyceYyKCOkAAAgAAYAAAgAAEAADAAAAAAAAAAAA==

> <PUBCHEM_IUPAC_OPENEYE_NAME>
N-[(3S,5S)-1-[3-(6-fluoro-1,2-benzoxazol-3-yl)propyl]-5-methyl-pyrrolidin-3-yl]naphthalene-2-sulfonamide

> <PUBCHEM_IUPAC_CAS_NAME>
N-[(3S,5S)-1-[3-(6-fluoro-1,2-benzoxazol-3-yl)propyl]-5-methyl-3-pyrrolidinyl]-2-naphthalenesulfonamide

> <PUBCHEM_IUPAC_NAME_MARKUP>
<I>N</I>-[(3<I>S</I>,5<I>S</I>)-1-[3-(6-fluoro-1,2-benzoxazol-3-yl)propyl]-5-methylpyrrolidin-3-yl]naphthalene-2-sulfonamide

> <PUBCHEM_IUPAC_NAME>
N-[(3S,5S)-1-[3-(6-fluoro-1,2-benzoxazol-3-yl)propyl]-5-methylpyrrolidin-3-yl]naphthalene-2-sulfonamide

> <PUBCHEM_IUPAC_SYSTEMATIC_NAME>
N-[(3S,5S)-1-[3-(6-fluoranyl-1,2-benzoxazol-3-yl)propyl]-5-methyl-pyrrolidin-3-yl]naphthalene-2-sulfonamide

> <PUBCHEM_IUPAC_TRADITIONAL_NAME>
N-[(3S,5S)-1-[3-(6-fluoroindoxazen-3-yl)propyl]-5-methyl-pyrrolidin-3-yl]naphthalene-2-sulfonamide

> <PUBCHEM_IUPAC_INCHI>
InChI=1S/C25H26FN3O3S/c1-17-13-21(28-33(30,31)22-10-8-18-5-2-3-6-19(18)14-22)16-29(17)12-4-7-24-23-11-9-20(26)15-25(23)32-27-24/h2-3,5-6,8-11,14-15,17,21,28H,4,7,12-13,16H2,1H3/t17-,21-/m0/s1

> <PUBCHEM_IUPAC_INCHIKEY>
HLGKXVMBSLHNKH-UWJYYQICSA-N

> <PUBCHEM_XLOGP3_AA>
5

> <PUBCHEM_EXACT_MASS>
467.16789104

> <PUBCHEM_MOLECULAR_FORMULA>
C25H26FN3O3S

> <PUBCHEM_MOLECULAR_WEIGHT>
467.6

> <PUBCHEM_OPENEYE_CAN_SMILES>
CC1CC(CN1CCCC2=NOC3=C2C=CC(=C3)F)NS(=O)(=O)C4=CC5=CC=CC=C5C=C4

> <PUBCHEM_OPENEYE_ISO_SMILES>
C[C@H]1C[C@@H](CN1CCCC2=NOC3=C2C=CC(=C3)F)NS(=O)(=O)C4=CC5=CC=CC=C5C=C4

> <PUBCHEM_CACTVS_TPSA>
83.8

> <PUBCHEM_MONOISOTOPIC_WEIGHT>
467.16789104

> <PUBCHEM_TOTAL_CHARGE>
0

> <PUBCHEM_HEAVY_ATOM_COUNT>
33

> <PUBCHEM_ATOM_DEF_STEREO_COUNT>
2

> <PUBCHEM_ATOM_UDEF_STEREO_COUNT>
0

> <PUBCHEM_BOND_DEF_STEREO_COUNT>
0

> <PUBCHEM_BOND_UDEF_STEREO_COUNT>
0

> <PUBCHEM_ISOTOPIC_ATOM_COUNT>
0

> <PUBCHEM_COMPONENT_COUNT>
1

> <PUBCHEM_CACTVS_TAUTO_COUNT>
-1

> <PUBCHEM_COORDINATE_TYPE>
1
5
255

> <PUBCHEM_BONDANNOTATIONS>
17  19  8
17  20  8
18  21  8
19  22  8
20  23  8
21  25  8
21  26  8
22  24  8
22  27  8
23  24  8
24  29  8
25  28  8
26  30  8
27  32  8
28  31  8
29  33  8
30  31  8
32  33  8
5  25  8
5  8  8
10  7  5
8  18  8
9  14  6

$$$$
