46888926
  -OEChem-09292322292D

 57 61  0     0  0  0  0  0  0999 V2000
   11.1341    0.4839    0.0000 O   0  0  0  0  0  0  0  0  0  0  0  0
    3.9969    0.4282    0.0000 O   0  0  0  0  0  0  0  0  0  0  0  0
    2.5044    1.3916    0.0000 O   0  0  0  0  0  0  0  0  0  0  0  0
   16.3963    0.5081    0.0000 O   0  0  0  0  0  0  0  0  0  0  0  0
    7.6701    0.4706    0.0000 N   0  0  0  0  0  0  0  0  0  0  0  0
    5.9419   -0.5361    0.0000 N   0  0  0  0  0  0  0  0  0  0  0  0
    2.6062   -0.3819    0.0000 N   0  0  0  0  0  0  0  0  0  0  0  0
   14.6643    0.5081    0.0000 N   0  0  0  0  0  0  0  0  0  0  0  0
    6.8021    0.9672    0.0000 C   0  0  0  0  0  0  0  0  0  0  0  0
    7.6739   -0.5294    0.0000 C   0  0  0  0  0  0  0  0  0  0  0  0
    5.9380    0.4639    0.0000 C   0  0  0  0  0  0  0  0  0  0  0  0
    6.8098   -1.0327    0.0000 C   0  0  0  0  0  0  0  0  0  0  0  0
    8.5342    0.9739    0.0000 C   0  0  0  0  0  0  0  0  0  0  0  0
    5.0778   -1.0394    0.0000 C   0  0  0  0  0  0  0  0  0  0  0  0
    9.4021    0.4773    0.0000 C   0  0  0  0  0  0  0  0  0  0  0  0
    4.2098   -0.5428    0.0000 C   0  0  0  0  0  0  0  0  0  0  0  0
   10.2662    0.9806    0.0000 C   0  0  0  0  0  0  0  0  0  0  0  0
    5.0816   -2.0394    0.0000 C   0  0  0  0  0  0  0  0  0  0  0  0
    3.3458   -1.0461    0.0000 C   0  0  0  0  0  0  0  0  0  0  0  0
    4.2176   -2.5428    0.0000 C   0  0  0  0  0  0  0  0  0  0  0  0
    3.3496   -2.0461    0.0000 C   0  0  0  0  0  0  0  0  0  0  0  0
   13.7982    2.0081    0.0000 C   0  0  0  0  0  0  0  0  0  0  0  0
   14.6643    2.5081    0.0000 C   0  0  0  0  0  0  0  0  0  0  0  0
   11.9982    0.9873    0.0000 C   0  0  0  0  0  0  0  0  0  0  0  0
   13.7982    1.0081    0.0000 C   0  0  0  0  0  0  0  0  0  0  0  0
   15.5303    2.0081    0.0000 C   0  0  0  0  0  0  0  0  0  0  0  0
   12.9043    0.4734    0.0000 C   0  0  0  0  0  0  0  0  0  0  0  0
    3.0078    0.5275    0.0000 C   0  0  0  0  0  0  0  0  0  0  0  0
   12.9043    2.5428    0.0000 C   0  0  0  0  0  0  0  0  0  0  0  0
   11.9982    2.0289    0.0000 C   0  0  0  0  0  0  0  0  0  0  0  0
   15.5303    1.0081    0.0000 C   0  0  0  0  0  0  0  0  0  0  0  0
    7.1988    1.4437    0.0000 H   0  0  0  0  0  0  0  0  0  0  0  0
    6.4018    1.4406    0.0000 H   0  0  0  0  0  0  0  0  0  0  0  0
    7.8882   -1.1112    0.0000 H   0  0  0  0  0  0  0  0  0  0  0  0
    8.2841   -0.4194    0.0000 H   0  0  0  0  0  0  0  0  0  0  0  0
    5.7237    1.0457    0.0000 H   0  0  0  0  0  0  0  0  0  0  0  0
    5.3279    0.3539    0.0000 H   0  0  0  0  0  0  0  0  0  0  0  0
    6.4131   -1.5092    0.0000 H   0  0  0  0  0  0  0  0  0  0  0  0
    7.2102   -1.5062    0.0000 H   0  0  0  0  0  0  0  0  0  0  0  0
    8.9309    1.4504    0.0000 H   0  0  0  0  0  0  0  0  0  0  0  0
    8.1338    1.4473    0.0000 H   0  0  0  0  0  0  0  0  0  0  0  0
    9.0054    0.0008    0.0000 H   0  0  0  0  0  0  0  0  0  0  0  0
    9.8025    0.0039    0.0000 H   0  0  0  0  0  0  0  0  0  0  0  0
   10.6629    1.4571    0.0000 H   0  0  0  0  0  0  0  0  0  0  0  0
    9.8658    1.4540    0.0000 H   0  0  0  0  0  0  0  0  0  0  0  0
    5.6198   -2.3473    0.0000 H   0  0  0  0  0  0  0  0  0  0  0  0
    4.2200   -3.1627    0.0000 H   0  0  0  0  0  0  0  0  0  0  0  0
    2.8139   -2.3582    0.0000 H   0  0  0  0  0  0  0  0  0  0  0  0
   15.0628    2.9830    0.0000 H   0  0  0  0  0  0  0  0  0  0  0  0
   14.2657    2.9830    0.0000 H   0  0  0  0  0  0  0  0  0  0  0  0
    2.0000   -0.5121    0.0000 H   0  0  0  0  0  0  0  0  0  0  0  0
   16.1409    1.9004    0.0000 H   0  0  0  0  0  0  0  0  0  0  0  0
   15.7424    2.5907    0.0000 H   0  0  0  0  0  0  0  0  0  0  0  0
   12.9115   -0.1465    0.0000 H   0  0  0  0  0  0  0  0  0  0  0  0
   12.9115    3.1627    0.0000 H   0  0  0  0  0  0  0  0  0  0  0  0
   11.4625    2.3410    0.0000 H   0  0  0  0  0  0  0  0  0  0  0  0
   14.6643   -0.1119    0.0000 H   0  0  0  0  0  0  0  0  0  0  0  0
  1 17  1  0  0  0  0
  1 24  1  0  0  0  0
  2 16  1  0  0  0  0
  2 28  1  0  0  0  0
  3 28  2  0  0  0  0
  4 31  2  0  0  0  0
  5  9  1  0  0  0  0
  5 10  1  0  0  0  0
  5 13  1  0  0  0  0
  6 11  1  0  0  0  0
  6 12  1  0  0  0  0
  6 14  1  0  0  0  0
  7 19  1  0  0  0  0
  7 28  1  0  0  0  0
  7 51  1  0  0  0  0
  8 25  1  0  0  0  0
  8 31  1  0  0  0  0
  8 57  1  0  0  0  0
  9 11  1  0  0  0  0
  9 32  1  0  0  0  0
  9 33  1  0  0  0  0
 10 12  1  0  0  0  0
 10 34  1  0  0  0  0
 10 35  1  0  0  0  0
 11 36  1  0  0  0  0
 11 37  1  0  0  0  0
 12 38  1  0  0  0  0
 12 39  1  0  0  0  0
 13 15  1  0  0  0  0
 13 40  1  0  0  0  0
 13 41  1  0  0  0  0
 14 16  1  0  0  0  0
 14 18  2  0  0  0  0
 15 17  1  0  0  0  0
 15 42  1  0  0  0  0
 15 43  1  0  0  0  0
 16 19  2  0  0  0  0
 17 44  1  0  0  0  0
 17 45  1  0  0  0  0
 18 20  1  0  0  0  0
 18 46  1  0  0  0  0
 19 21  1  0  0  0  0
 20 21  2  0  0  0  0
 20 47  1  0  0  0  0
 21 48  1  0  0  0  0
 22 23  1  0  0  0  0
 22 25  2  0  0  0  0
 22 29  1  0  0  0  0
 23 26  1  0  0  0  0
 23 49  1  0  0  0  0
 23 50  1  0  0  0  0
 24 27  2  0  0  0  0
 24 30  1  0  0  0  0
 25 27  1  0  0  0  0
 26 31  1  0  0  0  0
 26 52  1  0  0  0  0
 26 53  1  0  0  0  0
 27 54  1  0  0  0  0
 29 30  2  0  0  0  0
 29 55  1  0  0  0  0
 30 56  1  0  0  0  0
M  END
> <PUBCHEM_COMPOUND_CID>
46888926

> <PUBCHEM_COMPOUND_CANONICALIZED>
1

> <PUBCHEM_CACTVS_COMPLEXITY>
654

> <PUBCHEM_CACTVS_HBOND_ACCEPTOR>
6

> <PUBCHEM_CACTVS_HBOND_DONOR>
2

> <PUBCHEM_CACTVS_ROTATABLE_BOND>
6

> <PUBCHEM_CACTVS_SUBSKEYS>
AAADceB7uAAAAAAAAAAAAAAAAAAAAWAAAAA8eIEAAAAAAFixQAAAHgAQAAAADAzhmAYwzoPABACIAiVSWACCCAAhIgAIiAEPbIkOZjLE8dufOijm1BnY6AeY2aOeIAAAAgQCEABAAAAECAQgAAAAAAAAAA==

> <PUBCHEM_IUPAC_OPENEYE_NAME>
7-[4-[3-[(2-oxo-3,4-dihydro-1H-quinolin-7-yl)oxy]propyl]piperazin-1-yl]-3H-1,3-benzoxazol-2-one

> <PUBCHEM_IUPAC_CAS_NAME>
7-[4-[3-[(2-oxo-3,4-dihydro-1H-quinolin-7-yl)oxy]propyl]-1-piperazinyl]-3H-1,3-benzoxazol-2-one

> <PUBCHEM_IUPAC_NAME_MARKUP>
7-[4-[3-[(2-oxo-3,4-dihydro-1<I>H</I>-quinolin-7-yl)oxy]propyl]piperazin-1-yl]-3<I>H</I>-1,3-benzoxazol-2-one

> <PUBCHEM_IUPAC_NAME>
7-[4-[3-[(2-oxo-3,4-dihydro-1H-quinolin-7-yl)oxy]propyl]piperazin-1-yl]-3H-1,3-benzoxazol-2-one

> <PUBCHEM_IUPAC_SYSTEMATIC_NAME>
7-[4-[3-[(2-oxidanylidene-3,4-dihydro-1H-quinolin-7-yl)oxy]propyl]piperazin-1-yl]-3H-1,3-benzoxazol-2-one

> <PUBCHEM_IUPAC_TRADITIONAL_NAME>
7-[4-[3-[(2-keto-3,4-dihydro-1H-quinolin-7-yl)oxy]propyl]piperazino]-3H-1,3-benzoxazol-2-one

> <PUBCHEM_IUPAC_INCHI>
InChI=1S/C23H26N4O4/c28-21-8-6-16-5-7-17(15-19(16)24-21)30-14-2-9-26-10-12-27(13-11-26)20-4-1-3-18-22(20)31-23(29)25-18/h1,3-5,7,15H,2,6,8-14H2,(H,24,28)(H,25,29)

> <PUBCHEM_IUPAC_INCHIKEY>
RZHBTLSHMLRZGG-UHFFFAOYSA-N

> <PUBCHEM_XLOGP3_AA>
2.2

> <PUBCHEM_EXACT_MASS>
422.19540532

> <PUBCHEM_MOLECULAR_FORMULA>
C23H26N4O4

> <PUBCHEM_MOLECULAR_WEIGHT>
422.5

> <PUBCHEM_OPENEYE_CAN_SMILES>
C1CC(=O)NC2=C1C=CC(=C2)OCCCN3CCN(CC3)C4=CC=CC5=C4OC(=O)N5

> <PUBCHEM_OPENEYE_ISO_SMILES>
C1CC(=O)NC2=C1C=CC(=C2)OCCCN3CCN(CC3)C4=CC=CC5=C4OC(=O)N5

> <PUBCHEM_CACTVS_TPSA>
83.1

> <PUBCHEM_MONOISOTOPIC_WEIGHT>
422.19540532

> <PUBCHEM_TOTAL_CHARGE>
0

> <PUBCHEM_HEAVY_ATOM_COUNT>
31

> <PUBCHEM_ATOM_DEF_STEREO_COUNT>
0

> <PUBCHEM_ATOM_UDEF_STEREO_COUNT>
0

> <PUBCHEM_BOND_DEF_STEREO_COUNT>
0

> <PUBCHEM_BOND_UDEF_STEREO_COUNT>
0

> <PUBCHEM_ISOTOPIC_ATOM_COUNT>
0

> <PUBCHEM_COMPONENT_COUNT>
1

> <PUBCHEM_CACTVS_TAUTO_COUNT>
-1

> <PUBCHEM_COORDINATE_TYPE>
1
5
255

> <PUBCHEM_BONDANNOTATIONS>
14  16  8
14  18  8
16  19  8
18  20  8
19  21  8
2  16  8
2  28  8
20  21  8
22  25  8
22  29  8
24  27  8
24  30  8
25  27  8
29  30  8
7  19  8
7  28  8

$$$$
