44376920
  -OEChem-09292322212D

 55 58  0     1  0  0  0  0  0999 V2000
    7.1884   -0.1971    0.0000 O   0  0  0  0  0  0  0  0  0  0  0  0
    2.8602   -0.7138    0.0000 O   0  0  0  0  0  0  0  0  0  0  0  0
   10.7205   -0.1696    0.0000 N   0  0  3  0  0  0  0  0  0  0  0  0
   12.4525    0.8304    0.0000 N   0  0  3  0  0  0  0  0  0  0  0  0
   13.3185    2.3304    0.0000 N   0  0  0  0  0  0  0  0  0  0  0  0
   14.1846    0.8304    0.0000 N   0  0  0  0  0  0  0  0  0  0  0  0
    3.7320   -2.2104    0.0000 N   0  0  0  0  0  0  0  0  0  0  0  0
   10.7205    0.8304    0.0000 C   0  0  1  0  0  0  0  0  0  0  0  0
    8.9204   -0.1904    0.0000 C   0  0  1  0  0  0  0  0  0  0  0  0
    9.8265    1.3651    0.0000 C   0  0  0  0  0  0  0  0  0  0  0  0
    9.8265   -0.7042    0.0000 C   0  0  0  0  0  0  0  0  0  0  0  0
    8.9204    0.8512    0.0000 C   0  0  0  0  0  0  0  0  0  0  0  0
   11.5865    1.3304    0.0000 C   0  0  0  0  0  0  0  0  0  0  0  0
   11.5865   -0.6696    0.0000 C   0  0  0  0  0  0  0  0  0  0  0  0
   12.4525   -0.1696    0.0000 C   0  0  0  0  0  0  0  0  0  0  0  0
    8.0564   -0.6937    0.0000 C   0  0  0  0  0  0  0  0  0  0  0  0
   13.3185    1.3304    0.0000 C   0  0  0  0  0  0  0  0  0  0  0  0
    6.3243   -0.7004    0.0000 C   0  0  0  0  0  0  0  0  0  0  0  0
   14.1846    2.8304    0.0000 C   0  0  0  0  0  0  0  0  0  0  0  0
   15.0506    1.3304    0.0000 C   0  0  0  0  0  0  0  0  0  0  0  0
    6.3282   -1.7004    0.0000 C   0  0  0  0  0  0  0  0  0  0  0  0
    5.4564   -0.2038    0.0000 C   0  0  0  0  0  0  0  0  0  0  0  0
   15.0506    2.3304    0.0000 C   0  0  0  0  0  0  0  0  0  0  0  0
    5.4641   -2.2037    0.0000 C   0  0  0  0  0  0  0  0  0  0  0  0
    4.5923   -0.7071    0.0000 C   0  0  0  0  0  0  0  0  0  0  0  0
    4.5961   -1.7071    0.0000 C   0  0  0  0  0  0  0  0  0  0  0  0
    2.8641   -1.7138    0.0000 C   0  0  0  0  0  0  0  0  0  0  0  0
    2.0000   -2.2171    0.0000 C   0  0  0  0  0  0  0  0  0  0  0  0
   10.7270    1.6804    0.0000 H   0  0  0  0  0  0  0  0  0  0  0  0
    8.9240   -0.8104    0.0000 H   0  0  0  0  0  0  0  0  0  0  0  0
   10.2311    1.8349    0.0000 H   0  0  0  0  0  0  0  0  0  0  0  0
    9.4329    1.8441    0.0000 H   0  0  0  0  0  0  0  0  0  0  0  0
    9.4329   -1.1833    0.0000 H   0  0  0  0  0  0  0  0  0  0  0  0
   10.2311   -1.1740    0.0000 H   0  0  0  0  0  0  0  0  0  0  0  0
    8.7114    1.4349    0.0000 H   0  0  0  0  0  0  0  0  0  0  0  0
    8.3096    0.7451    0.0000 H   0  0  0  0  0  0  0  0  0  0  0  0
   11.9850    1.8054    0.0000 H   0  0  0  0  0  0  0  0  0  0  0  0
   11.1879    1.8054    0.0000 H   0  0  0  0  0  0  0  0  0  0  0  0
   11.1879   -1.1445    0.0000 H   0  0  0  0  0  0  0  0  0  0  0  0
   11.9850   -1.1445    0.0000 H   0  0  0  0  0  0  0  0  0  0  0  0
   12.6646   -0.7522    0.0000 H   0  0  0  0  0  0  0  0  0  0  0  0
   13.0631   -0.0619    0.0000 H   0  0  0  0  0  0  0  0  0  0  0  0
    7.6597   -1.1702    0.0000 H   0  0  0  0  0  0  0  0  0  0  0  0
    8.4567   -1.1672    0.0000 H   0  0  0  0  0  0  0  0  0  0  0  0
   14.1846    3.4504    0.0000 H   0  0  0  0  0  0  0  0  0  0  0  0
   15.5875    1.0204    0.0000 H   0  0  0  0  0  0  0  0  0  0  0  0
    6.8663   -2.0083    0.0000 H   0  0  0  0  0  0  0  0  0  0  0  0
    5.4540    0.4162    0.0000 H   0  0  0  0  0  0  0  0  0  0  0  0
   15.5875    2.6404    0.0000 H   0  0  0  0  0  0  0  0  0  0  0  0
    5.4665   -2.8237    0.0000 H   0  0  0  0  0  0  0  0  0  0  0  0
    4.0542   -0.3992    0.0000 H   0  0  0  0  0  0  0  0  0  0  0  0
    3.7344   -2.8304    0.0000 H   0  0  0  0  0  0  0  0  0  0  0  0
    1.6879   -1.6814    0.0000 H   0  0  0  0  0  0  0  0  0  0  0  0
    1.4643   -2.5292    0.0000 H   0  0  0  0  0  0  0  0  0  0  0  0
    2.3121   -2.7528    0.0000 H   0  0  0  0  0  0  0  0  0  0  0  0
  1 16  1  0  0  0  0
  1 18  1  0  0  0  0
  2 27  2  0  0  0  0
  3  8  1  0  0  0  0
  3 11  1  0  0  0  0
  3 14  1  0  0  0  0
  4 13  1  0  0  0  0
  4 15  1  0  0  0  0
  4 17  1  0  0  0  0
  5 17  2  0  0  0  0
  5 19  1  0  0  0  0
  6 17  1  0  0  0  0
  6 20  2  0  0  0  0
  7 26  1  0  0  0  0
  7 27  1  0  0  0  0
  7 52  1  0  0  0  0
  8 10  1  0  0  0  0
  8 13  1  0  0  0  0
  8 29  1  6  0  0  0
  9 11  1  0  0  0  0
  9 12  1  0  0  0  0
  9 16  1  6  0  0  0
  9 30  1  0  0  0  0
 10 12  1  0  0  0  0
 10 31  1  0  0  0  0
 10 32  1  0  0  0  0
 11 33  1  0  0  0  0
 11 34  1  0  0  0  0
 12 35  1  0  0  0  0
 12 36  1  0  0  0  0
 13 37  1  0  0  0  0
 13 38  1  0  0  0  0
 14 15  1  0  0  0  0
 14 39  1  0  0  0  0
 14 40  1  0  0  0  0
 15 41  1  0  0  0  0
 15 42  1  0  0  0  0
 16 43  1  0  0  0  0
 16 44  1  0  0  0  0
 18 21  2  0  0  0  0
 18 22  1  0  0  0  0
 19 23  2  0  0  0  0
 19 45  1  0  0  0  0
 20 23  1  0  0  0  0
 20 46  1  0  0  0  0
 21 24  1  0  0  0  0
 21 47  1  0  0  0  0
 22 25  2  0  0  0  0
 22 48  1  0  0  0  0
 23 49  1  0  0  0  0
 24 26  2  0  0  0  0
 24 50  1  0  0  0  0
 25 26  1  0  0  0  0
 25 51  1  0  0  0  0
 27 28  1  0  0  0  0
 28 53  1  0  0  0  0
 28 54  1  0  0  0  0
 28 55  1  0  0  0  0
M  END
> <PUBCHEM_COMPOUND_CID>
44376920

> <PUBCHEM_COMPOUND_CANONICALIZED>
1

> <PUBCHEM_CACTVS_COMPLEXITY>
505

> <PUBCHEM_CACTVS_HBOND_ACCEPTOR>
6

> <PUBCHEM_CACTVS_HBOND_DONOR>
1

> <PUBCHEM_CACTVS_ROTATABLE_BOND>
5

> <PUBCHEM_CACTVS_SUBSKEYS>
AAADceB7sAAAAAAAAAAAAAAAAAAAAAAAAAA8WLEAAAAAAACxwAAAHgAQAAAADSzhkgY/1pfIFACoADV3dACCiCkxIqAJ2CA+bJiMbqLE+duWPCju1BPI6CewUAMMAEAAAAAAAAAAgAAAAAAAAAAAAAAAAA==

> <PUBCHEM_IUPAC_OPENEYE_NAME>
N-[4-[[(7R,9aS)-2-pyrimidin-2-yl-1,3,4,6,7,8,9,9a-octahydropyrido[1,2-a]pyrazin-7-yl]methoxy]phenyl]acetamide

> <PUBCHEM_IUPAC_CAS_NAME>
N-[4-[[(7R,9aS)-2-(2-pyrimidinyl)-1,3,4,6,7,8,9,9a-octahydropyrido[1,2-a]pyrazin-7-yl]methoxy]phenyl]acetamide

> <PUBCHEM_IUPAC_NAME_MARKUP>
<I>N</I>-[4-[[(7<I>R</I>,9<I>a</I><I>S</I>)-2-pyrimidin-2-yl-1,3,4,6,7,8,9,9<I>a</I>-octahydropyrido[1,2-a]pyrazin-7-yl]methoxy]phenyl]acetamide

> <PUBCHEM_IUPAC_NAME>
N-[4-[[(7R,9aS)-2-pyrimidin-2-yl-1,3,4,6,7,8,9,9a-octahydropyrido[1,2-a]pyrazin-7-yl]methoxy]phenyl]acetamide

> <PUBCHEM_IUPAC_SYSTEMATIC_NAME>
N-[4-[[(7R,9aS)-2-pyrimidin-2-yl-1,3,4,6,7,8,9,9a-octahydropyrido[1,2-a]pyrazin-7-yl]methoxy]phenyl]ethanamide

> <PUBCHEM_IUPAC_TRADITIONAL_NAME>
N-[4-[[(7R,9aS)-2-(2-pyrimidyl)-1,3,4,6,7,8,9,9a-octahydropyrido[1,2-a]pyrazin-7-yl]methoxy]phenyl]acetamide

> <PUBCHEM_IUPAC_INCHI>
InChI=1S/C21H27N5O2/c1-16(27)24-18-4-7-20(8-5-18)28-15-17-3-6-19-14-26(12-11-25(19)13-17)21-22-9-2-10-23-21/h2,4-5,7-10,17,19H,3,6,11-15H2,1H3,(H,24,27)/t17-,19+/m1/s1

> <PUBCHEM_IUPAC_INCHIKEY>
CWRQNZXCKKVFTG-MJGOQNOKSA-N

> <PUBCHEM_XLOGP3_AA>
2.1

> <PUBCHEM_EXACT_MASS>
381.21647512

> <PUBCHEM_MOLECULAR_FORMULA>
C21H27N5O2

> <PUBCHEM_MOLECULAR_WEIGHT>
381.5

> <PUBCHEM_OPENEYE_CAN_SMILES>
CC(=O)NC1=CC=C(C=C1)OCC2CCC3CN(CCN3C2)C4=NC=CC=N4

> <PUBCHEM_OPENEYE_ISO_SMILES>
CC(=O)NC1=CC=C(C=C1)OC[C@@H]2CC[C@H]3CN(CCN3C2)C4=NC=CC=N4

> <PUBCHEM_CACTVS_TPSA>
70.6

> <PUBCHEM_MONOISOTOPIC_WEIGHT>
381.21647512

> <PUBCHEM_TOTAL_CHARGE>
0

> <PUBCHEM_HEAVY_ATOM_COUNT>
28

> <PUBCHEM_ATOM_DEF_STEREO_COUNT>
2

> <PUBCHEM_ATOM_UDEF_STEREO_COUNT>
0

> <PUBCHEM_BOND_DEF_STEREO_COUNT>
0

> <PUBCHEM_BOND_UDEF_STEREO_COUNT>
0

> <PUBCHEM_ISOTOPIC_ATOM_COUNT>
0

> <PUBCHEM_COMPONENT_COUNT>
1

> <PUBCHEM_CACTVS_TAUTO_COUNT>
-1

> <PUBCHEM_COORDINATE_TYPE>
1
5
255

> <PUBCHEM_BONDANNOTATIONS>
18  21  8
18  22  8
19  23  8
20  23  8
21  24  8
22  25  8
24  26  8
25  26  8
5  17  8
5  19  8
6  17  8
6  20  8
8  29  6
9  16  6

$$$$
