9841398
  -OEChem-09292321582D

 43 46  0     1  0  0  0  0  0999 V2000
    5.0836    3.0591    0.0000 S   0  0  0  0  0  0  0  0  0  0  0  0
    5.0394   -1.8826    0.0000 O   0  0  0  0  0  0  0  0  0  0  0  0
    6.8427   -2.9423    0.0000 O   0  0  0  0  0  0  0  0  0  0  0  0
    7.7619    2.7544    0.0000 N   0  0  0  0  0  0  0  0  0  0  0  0
    6.8958    1.2544    0.0000 C   0  0  2  0  0  0  0  0  0  0  0  0
    7.7619    1.7544    0.0000 C   0  0  1  0  0  0  0  0  0  0  0  0
    8.6719    1.2475    0.0000 C   0  0  0  0  0  0  0  0  0  0  0  0
    6.0298    1.7544    0.0000 C   0  0  0  0  0  0  0  0  0  0  0  0
    6.8798    0.2129    0.0000 C   0  0  0  0  0  0  0  0  0  0  0  0
    8.6799    0.2059    0.0000 C   0  0  0  0  0  0  0  0  0  0  0  0
    7.7778   -0.3149    0.0000 C   0  0  0  0  0  0  0  0  0  0  0  0
    6.0298    2.7544    0.0000 C   0  0  0  0  0  0  0  0  0  0  0  0
    6.8958    3.2544    0.0000 C   0  0  0  0  0  0  0  0  0  0  0  0
    5.0836    1.4497    0.0000 C   0  0  0  0  0  0  0  0  0  0  0  0
    5.9279   -0.3077    0.0000 C   0  0  0  0  0  0  0  0  0  0  0  0
    4.5000    2.2544    0.0000 C   0  0  0  0  0  0  0  0  0  0  0  0
    7.7862   -1.3998    0.0000 C   0  0  0  0  0  0  0  0  0  0  0  0
    5.9111   -1.3926    0.0000 C   0  0  0  0  0  0  0  0  0  0  0  0
    3.5000    2.2544    0.0000 C   0  0  0  0  0  0  0  0  0  0  0  0
    6.8466   -1.9423    0.0000 C   0  0  0  0  0  0  0  0  0  0  0  0
    3.0000    3.1204    0.0000 C   0  0  0  0  0  0  0  0  0  0  0  0
    2.0000    3.1204    0.0000 C   0  0  0  0  0  0  0  0  0  0  0  0
    6.1565    0.8351    0.0000 H   0  0  0  0  0  0  0  0  0  0  0  0
    8.4947    2.1850    0.0000 H   0  0  0  0  0  0  0  0  0  0  0  0
    9.2835    1.1462    0.0000 H   0  0  0  0  0  0  0  0  0  0  0  0
    8.8764    1.8328    0.0000 H   0  0  0  0  0  0  0  0  0  0  0  0
    8.8935   -0.3761    0.0000 H   0  0  0  0  0  0  0  0  0  0  0  0
    9.2899    0.3167    0.0000 H   0  0  0  0  0  0  0  0  0  0  0  0
    8.2988    3.0644    0.0000 H   0  0  0  0  0  0  0  0  0  0  0  0
    7.2944    3.7293    0.0000 H   0  0  0  0  0  0  0  0  0  0  0  0
    6.4973    3.7293    0.0000 H   0  0  0  0  0  0  0  0  0  0  0  0
    4.8910    0.8603    0.0000 H   0  0  0  0  0  0  0  0  0  0  0  0
    5.3970    0.0126    0.0000 H   0  0  0  0  0  0  0  0  0  0  0  0
    8.3243   -1.7078    0.0000 H   0  0  0  0  0  0  0  0  0  0  0  0
    2.9174    2.0423    0.0000 H   0  0  0  0  0  0  0  0  0  0  0  0
    3.6077    1.6438    0.0000 H   0  0  0  0  0  0  0  0  0  0  0  0
    3.5826    3.3325    0.0000 H   0  0  0  0  0  0  0  0  0  0  0  0
    2.8923    3.7310    0.0000 H   0  0  0  0  0  0  0  0  0  0  0  0
    5.0322   -2.5025    0.0000 H   0  0  0  0  0  0  0  0  0  0  0  0
    2.0000    3.7404    0.0000 H   0  0  0  0  0  0  0  0  0  0  0  0
    1.3800    3.1204    0.0000 H   0  0  0  0  0  0  0  0  0  0  0  0
    2.0000    2.5004    0.0000 H   0  0  0  0  0  0  0  0  0  0  0  0
    7.3784   -3.2544    0.0000 H   0  0  0  0  0  0  0  0  0  0  0  0
  1 12  1  0  0  0  0
  1 16  1  0  0  0  0
  2 18  1  0  0  0  0
  2 39  1  0  0  0  0
  3 20  1  0  0  0  0
  3 43  1  0  0  0  0
  4  6  1  0  0  0  0
  4 13  1  0  0  0  0
  4 29  1  0  0  0  0
  5  6  1  0  0  0  0
  5  8  1  0  0  0  0
  5  9  1  0  0  0  0
  5 23  1  6  0  0  0
  6  7  1  0  0  0  0
  6 24  1  1  0  0  0
  7 10  1  0  0  0  0
  7 25  1  0  0  0  0
  7 26  1  0  0  0  0
  8 12  2  0  0  0  0
  8 14  1  0  0  0  0
  9 11  1  0  0  0  0
  9 15  2  0  0  0  0
 10 11  1  0  0  0  0
 10 27  1  0  0  0  0
 10 28  1  0  0  0  0
 11 17  2  0  0  0  0
 12 13  1  0  0  0  0
 13 30  1  0  0  0  0
 13 31  1  0  0  0  0
 14 16  2  0  0  0  0
 14 32  1  0  0  0  0
 15 18  1  0  0  0  0
 15 33  1  0  0  0  0
 16 19  1  0  0  0  0
 17 20  1  0  0  0  0
 17 34  1  0  0  0  0
 18 20  2  0  0  0  0
 19 21  1  0  0  0  0
 19 35  1  0  0  0  0
 19 36  1  0  0  0  0
 21 22  1  0  0  0  0
 21 37  1  0  0  0  0
 21 38  1  0  0  0  0
 22 40  1  0  0  0  0
 22 41  1  0  0  0  0
 22 42  1  0  0  0  0
M  END
> <PUBCHEM_COMPOUND_CID>
9841398

> <PUBCHEM_COMPOUND_CANONICALIZED>
1

> <PUBCHEM_CACTVS_COMPLEXITY>
407

> <PUBCHEM_CACTVS_HBOND_ACCEPTOR>
4

> <PUBCHEM_CACTVS_HBOND_DONOR>
3

> <PUBCHEM_CACTVS_ROTATABLE_BOND>
2

> <PUBCHEM_CACTVS_SUBSKEYS>
AAADceB6MABAAAAAAAAAAAAAAAAAASAAAAA8YIAAAAAAAFjxwAAAHgQQCAAADSzB2AQyB4LAAgiEAiBCAACDAIAgKBBAiJgOjIgJJiKikROEcAlk0BGpmAeQ0PMOoAABAAAQQABQAAaAACSAAAAAAAAAAA==

> <PUBCHEM_IUPAC_OPENEYE_NAME>
(1S,10R)-15-propyl-14-thia-11-azatetracyclo[8.7.0.02,7.013,17]heptadeca-2,4,6,13(17),15-pentaene-4,5-diol

> <PUBCHEM_IUPAC_CAS_NAME>
(1S,10R)-15-propyl-14-thia-11-azatetracyclo[8.7.0.02,7.013,17]heptadeca-2,4,6,13(17),15-pentaene-4,5-diol

> <PUBCHEM_IUPAC_NAME_MARKUP>
(1<I>S</I>,10<I>R</I>)-15-propyl-14-thia-11-azatetracyclo[8.7.0.0<SUP>2,7</SUP>.0<SUP>13,17</SUP>]heptadeca-2,4,6,13(17),15-pentaene-4,5-diol

> <PUBCHEM_IUPAC_NAME>
(1S,10R)-15-propyl-14-thia-11-azatetracyclo[8.7.0.02,7.013,17]heptadeca-2,4,6,13(17),15-pentaene-4,5-diol

> <PUBCHEM_IUPAC_SYSTEMATIC_NAME>
(1S,10R)-15-propyl-14-thia-11-azatetracyclo[8.7.0.02,7.013,17]heptadeca-2,4,6,13(17),15-pentaene-4,5-diol

> <PUBCHEM_IUPAC_TRADITIONAL_NAME>
(1S,10R)-15-propyl-14-thia-11-azatetracyclo[8.7.0.02,7.013,17]heptadeca-2,4,6,13(17),15-pentaene-4,5-diol

> <PUBCHEM_IUPAC_INCHI>
InChI=1S/C18H21NO2S/c1-2-3-11-7-13-17(22-11)9-19-14-5-4-10-6-15(20)16(21)8-12(10)18(13)14/h6-8,14,18-21H,2-5,9H2,1H3/t14-,18+/m1/s1

> <PUBCHEM_IUPAC_INCHIKEY>
REHAKLRYABHSQJ-KDOFPFPSSA-N

> <PUBCHEM_XLOGP3_AA>
3.4

> <PUBCHEM_EXACT_MASS>
315.12930009

> <PUBCHEM_MOLECULAR_FORMULA>
C18H21NO2S

> <PUBCHEM_MOLECULAR_WEIGHT>
315.4

> <PUBCHEM_OPENEYE_CAN_SMILES>
CCCC1=CC2=C(S1)CNC3C2C4=CC(=C(C=C4CC3)O)O

> <PUBCHEM_OPENEYE_ISO_SMILES>
CCCC1=CC2=C(S1)CN[C@H]3[C@H]2C4=CC(=C(C=C4CC3)O)O

> <PUBCHEM_CACTVS_TPSA>
80.7

> <PUBCHEM_MONOISOTOPIC_WEIGHT>
315.12930009

> <PUBCHEM_TOTAL_CHARGE>
0

> <PUBCHEM_HEAVY_ATOM_COUNT>
22

> <PUBCHEM_ATOM_DEF_STEREO_COUNT>
2

> <PUBCHEM_ATOM_UDEF_STEREO_COUNT>
0

> <PUBCHEM_BOND_DEF_STEREO_COUNT>
0

> <PUBCHEM_BOND_UDEF_STEREO_COUNT>
0

> <PUBCHEM_ISOTOPIC_ATOM_COUNT>
0

> <PUBCHEM_COMPONENT_COUNT>
1

> <PUBCHEM_CACTVS_TAUTO_COUNT>
-1

> <PUBCHEM_COORDINATE_TYPE>
1
5
255

> <PUBCHEM_BONDANNOTATIONS>
1  12  8
1  16  8
11  17  8
14  16  8
15  18  8
17  20  8
18  20  8
5  23  6
6  24  5
8  12  8
8  14  8
9  11  8
9  15  8

$$$$
