23631458
  -OEChem-09292322252D

 55 58  0     1  0  0  0  0  0999 V2000
    6.1569   -1.4906    0.0000 S   0  0  0  0  0  0  0  0  0  0  0  0
    2.0000   -3.1661    0.0000 F   0  0  0  0  0  0  0  0  0  0  0  0
    2.2212   -1.7693    0.0000 F   0  0  0  0  0  0  0  0  0  0  0  0
    3.3968   -3.3874    0.0000 F   0  0  0  0  0  0  0  0  0  0  0  0
   15.5930    1.6082    0.0000 O   0  0  0  0  0  0  0  0  0  0  0  0
    9.1569    0.2415    0.0000 N   0  0  3  0  0  0  0  0  0  0  0  0
   14.9267    0.8624    0.0000 N   0  0  0  0  0  0  0  0  0  0  0  0
    4.5691   -2.2996    0.0000 N   0  0  0  0  0  0  0  0  0  0  0  0
    4.5691   -0.6815    0.0000 N   0  0  0  0  0  0  0  0  0  0  0  0
    3.6180   -0.9906    0.0000 N   0  0  0  0  0  0  0  0  0  0  0  0
    9.5908    1.1425    0.0000 C   0  0  0  0  0  0  0  0  0  0  0  0
    9.5908   -0.6595    0.0000 C   0  0  0  0  0  0  0  0  0  0  0  0
   10.5657    1.3650    0.0000 C   0  0  0  0  0  0  0  0  0  0  0  0
   10.5657   -0.8820    0.0000 C   0  0  0  0  0  0  0  0  0  0  0  0
   11.3475    0.7415    0.0000 C   0  0  0  0  0  0  0  0  0  0  0  0
   11.3475   -0.2585    0.0000 C   0  0  0  0  0  0  0  0  0  0  0  0
    8.1569    0.2415    0.0000 C   0  0  0  0  0  0  0  0  0  0  0  0
    7.6569   -0.6245    0.0000 C   0  0  0  0  0  0  0  0  0  0  0  0
   12.2415    1.2762    0.0000 C   0  0  0  0  0  0  0  0  0  0  0  0
   12.2415   -0.7932    0.0000 C   0  0  0  0  0  0  0  0  0  0  0  0
   13.1475    0.7623    0.0000 C   0  0  0  0  0  0  0  0  0  0  0  0
    6.6569   -0.6245    0.0000 C   0  0  0  0  0  0  0  0  0  0  0  0
   13.1475   -0.2793    0.0000 C   0  0  0  0  0  0  0  0  0  0  0  0
   14.0116    1.2656    0.0000 C   0  0  0  0  0  0  0  0  0  0  0  0
   14.1123    2.2606    0.0000 C   0  0  0  0  0  0  0  0  0  0  0  0
    5.1569   -1.4906    0.0000 C   0  0  0  0  0  0  0  0  0  0  0  0
   15.0897    2.4722    0.0000 C   0  0  0  0  0  0  0  0  0  0  0  0
    3.6180   -1.9906    0.0000 C   0  0  0  0  0  0  0  0  0  0  0  0
    4.8781   -3.2506    0.0000 C   0  0  0  0  0  0  0  0  0  0  0  0
   15.4929    3.3874    0.0000 C   0  0  0  0  0  0  0  0  0  0  0  0
    2.8090   -2.5783    0.0000 C   0  0  0  0  0  0  0  0  0  0  0  0
    9.5908    1.7625    0.0000 H   0  0  0  0  0  0  0  0  0  0  0  0
    8.9863    1.2804    0.0000 H   0  0  0  0  0  0  0  0  0  0  0  0
    8.9863   -0.7974    0.0000 H   0  0  0  0  0  0  0  0  0  0  0  0
    9.5908   -1.2795    0.0000 H   0  0  0  0  0  0  0  0  0  0  0  0
   11.0504    1.7516    0.0000 H   0  0  0  0  0  0  0  0  0  0  0  0
   10.2967    1.9236    0.0000 H   0  0  0  0  0  0  0  0  0  0  0  0
   10.2967   -1.4406    0.0000 H   0  0  0  0  0  0  0  0  0  0  0  0
   11.0504   -1.2686    0.0000 H   0  0  0  0  0  0  0  0  0  0  0  0
    8.2645    0.8521    0.0000 H   0  0  0  0  0  0  0  0  0  0  0  0
    7.5743    0.4536    0.0000 H   0  0  0  0  0  0  0  0  0  0  0  0
    7.5492   -1.2351    0.0000 H   0  0  0  0  0  0  0  0  0  0  0  0
    8.2395   -0.8366    0.0000 H   0  0  0  0  0  0  0  0  0  0  0  0
   12.2343    1.8961    0.0000 H   0  0  0  0  0  0  0  0  0  0  0  0
   12.2343   -1.4131    0.0000 H   0  0  0  0  0  0  0  0  0  0  0  0
    6.7645   -0.0139    0.0000 H   0  0  0  0  0  0  0  0  0  0  0  0
    6.0743   -0.4125    0.0000 H   0  0  0  0  0  0  0  0  0  0  0  0
   13.6833   -0.5914    0.0000 H   0  0  0  0  0  0  0  0  0  0  0  0
   13.6500    2.6736    0.0000 H   0  0  0  0  0  0  0  0  0  0  0  0
    4.2884   -3.4422    0.0000 H   0  0  0  0  0  0  0  0  0  0  0  0
    5.0697   -3.8403    0.0000 H   0  0  0  0  0  0  0  0  0  0  0  0
    5.4678   -3.0590    0.0000 H   0  0  0  0  0  0  0  0  0  0  0  0
   16.0602    3.1374    0.0000 H   0  0  0  0  0  0  0  0  0  0  0  0
   15.7429    3.9547    0.0000 H   0  0  0  0  0  0  0  0  0  0  0  0
   14.9255    3.6373    0.0000 H   0  0  0  0  0  0  0  0  0  0  0  0
  1 22  1  0  0  0  0
  1 26  1  0  0  0  0
  2 31  1  0  0  0  0
  3 31  1  0  0  0  0
  4 31  1  0  0  0  0
  5  7  1  0  0  0  0
  5 27  1  0  0  0  0
  6 11  1  0  0  0  0
  6 12  1  0  0  0  0
  6 17  1  0  0  0  0
  7 24  2  0  0  0  0
  8 26  1  0  0  0  0
  8 28  1  0  0  0  0
  8 29  1  0  0  0  0
  9 10  1  0  0  0  0
  9 26  2  0  0  0  0
 10 28  2  0  0  0  0
 11 13  1  0  0  0  0
 11 32  1  0  0  0  0
 11 33  1  0  0  0  0
 12 14  1  0  0  0  0
 12 34  1  0  0  0  0
 12 35  1  0  0  0  0
 13 15  1  0  0  0  0
 13 36  1  0  0  0  0
 13 37  1  0  0  0  0
 14 16  1  0  0  0  0
 14 38  1  0  0  0  0
 14 39  1  0  0  0  0
 15 16  2  0  0  0  0
 15 19  1  0  0  0  0
 16 20  1  0  0  0  0
 17 18  1  0  0  0  0
 17 40  1  0  0  0  0
 17 41  1  0  0  0  0
 18 22  1  0  0  0  0
 18 42  1  0  0  0  0
 18 43  1  0  0  0  0
 19 21  2  0  0  0  0
 19 44  1  0  0  0  0
 20 23  2  0  0  0  0
 20 45  1  0  0  0  0
 21 23  1  0  0  0  0
 21 24  1  0  0  0  0
 22 46  1  0  0  0  0
 22 47  1  0  0  0  0
 23 48  1  0  0  0  0
 24 25  1  0  0  0  0
 25 27  2  0  0  0  0
 25 49  1  0  0  0  0
 27 30  1  0  0  0  0
 28 31  1  0  0  0  0
 29 50  1  0  0  0  0
 29 51  1  0  0  0  0
 29 52  1  0  0  0  0
 30 53  1  0  0  0  0
 30 54  1  0  0  0  0
 30 55  1  0  0  0  0
M  END
> <PUBCHEM_COMPOUND_CID>
23631458

> <PUBCHEM_COMPOUND_CANONICALIZED>
1

> <PUBCHEM_CACTVS_COMPLEXITY>
586

> <PUBCHEM_CACTVS_HBOND_ACCEPTOR>
9

> <PUBCHEM_CACTVS_HBOND_DONOR>
0

> <PUBCHEM_CACTVS_ROTATABLE_BOND>
6

> <PUBCHEM_CACTVS_SUBSKEYS>
AAADceB7oYBAAAAAAAAAAAAAAAAAAWLAAAAwAAAABYAAAAAB8AAAHwQMAAAADAzF3xSzlJccEAirA6ZyZgCS0AtkIrA92CE+bNqILrqgmZOEMYBmiBqIyUeYyOCOwAACAAAQAACAAAQAACAAAAAAAAAAAA==

> <PUBCHEM_IUPAC_OPENEYE_NAME>
5-methyl-3-[3-[3-[[4-methyl-5-(trifluoromethyl)-1,2,4-triazol-3-yl]sulfanyl]propyl]-1,2,4,5-tetrahydro-3-benzazepin-7-yl]isoxazole

> <PUBCHEM_IUPAC_CAS_NAME>
5-methyl-3-[3-[3-[[4-methyl-5-(trifluoromethyl)-1,2,4-triazol-3-yl]thio]propyl]-1,2,4,5-tetrahydro-3-benzazepin-7-yl]isoxazole

> <PUBCHEM_IUPAC_NAME_MARKUP>
5-methyl-3-[3-[3-[[4-methyl-5-(trifluoromethyl)-1,2,4-triazol-3-yl]sulfanyl]propyl]-1,2,4,5-tetrahydro-3-benzazepin-7-yl]-1,2-oxazole

> <PUBCHEM_IUPAC_NAME>
5-methyl-3-[3-[3-[[4-methyl-5-(trifluoromethyl)-1,2,4-triazol-3-yl]sulfanyl]propyl]-1,2,4,5-tetrahydro-3-benzazepin-7-yl]-1,2-oxazole

> <PUBCHEM_IUPAC_SYSTEMATIC_NAME>
5-methyl-3-[3-[3-[[4-methyl-5-(trifluoromethyl)-1,2,4-triazol-3-yl]sulfanyl]propyl]-1,2,4,5-tetrahydro-3-benzazepin-7-yl]-1,2-oxazole

> <PUBCHEM_IUPAC_TRADITIONAL_NAME>
5-methyl-3-[3-[3-[[4-methyl-5-(trifluoromethyl)-1,2,4-triazol-3-yl]thio]propyl]-1,2,4,5-tetrahydro-3-benzazepin-7-yl]isoxazole

> <PUBCHEM_IUPAC_INCHI>
InChI=1S/C21H24F3N5OS/c1-14-12-18(27-30-14)17-5-4-15-6-9-29(10-7-16(15)13-17)8-3-11-31-20-26-25-19(28(20)2)21(22,23)24/h4-5,12-13H,3,6-11H2,1-2H3

> <PUBCHEM_IUPAC_INCHIKEY>
UOCMXNLGBQWJPG-UHFFFAOYSA-N

> <PUBCHEM_XLOGP3_AA>
4.1

> <PUBCHEM_EXACT_MASS>
451.16536607

> <PUBCHEM_MOLECULAR_FORMULA>
C21H24F3N5OS

> <PUBCHEM_MOLECULAR_WEIGHT>
451.5

> <PUBCHEM_OPENEYE_CAN_SMILES>
CC1=CC(=NO1)C2=CC3=C(CCN(CC3)CCCSC4=NN=C(N4C)C(F)(F)F)C=C2

> <PUBCHEM_OPENEYE_ISO_SMILES>
CC1=CC(=NO1)C2=CC3=C(CCN(CC3)CCCSC4=NN=C(N4C)C(F)(F)F)C=C2

> <PUBCHEM_CACTVS_TPSA>
85.3

> <PUBCHEM_MONOISOTOPIC_WEIGHT>
451.16536607

> <PUBCHEM_TOTAL_CHARGE>
0

> <PUBCHEM_HEAVY_ATOM_COUNT>
31

> <PUBCHEM_ATOM_DEF_STEREO_COUNT>
0

> <PUBCHEM_ATOM_UDEF_STEREO_COUNT>
0

> <PUBCHEM_BOND_DEF_STEREO_COUNT>
0

> <PUBCHEM_BOND_UDEF_STEREO_COUNT>
0

> <PUBCHEM_ISOTOPIC_ATOM_COUNT>
0

> <PUBCHEM_COMPONENT_COUNT>
1

> <PUBCHEM_CACTVS_TAUTO_COUNT>
-1

> <PUBCHEM_COORDINATE_TYPE>
1
5
255

> <PUBCHEM_BONDANNOTATIONS>
10  28  8
15  16  8
15  19  8
16  20  8
19  21  8
20  23  8
21  23  8
24  25  8
25  27  8
5  27  8
5  7  8
7  24  8
8  26  8
8  28  8
9  10  8
9  26  8

$$$$
