117871083
  -OEChem-09292322352D

 71 75  0     0  0  0  0  0  0999 V2000
    8.1301   -2.5521    0.0000 O   0  0  0  0  0  0  0  0  0  0  0  0
    4.6660    1.4479    0.0000 N   0  0  0  0  0  0  0  0  0  0  0  0
    4.6660    3.4479    0.0000 N   0  0  0  0  0  0  0  0  0  0  0  0
    5.5321    4.9479    0.0000 N   0  0  0  0  0  0  0  0  0  0  0  0
    4.6660    6.4479    0.0000 N   0  0  0  0  0  0  0  0  0  0  0  0
    6.3981   -2.5521    0.0000 N   0  0  0  0  0  0  0  0  0  0  0  0
    7.7641   -5.5819    0.0000 N   0  0  0  0  0  0  0  0  0  0  0  0
    6.4594   -4.6357    0.0000 N   0  0  0  0  0  0  0  0  0  0  0  0
    5.5321    1.9479    0.0000 C   0  0  0  0  0  0  0  0  0  0  0  0
    3.8000    1.9479    0.0000 C   0  0  0  0  0  0  0  0  0  0  0  0
    5.5321    2.9479    0.0000 C   0  0  0  0  0  0  0  0  0  0  0  0
    3.8000    2.9479    0.0000 C   0  0  0  0  0  0  0  0  0  0  0  0
    4.6660    0.4479    0.0000 C   0  0  0  0  0  0  0  0  0  0  0  0
    5.5321   -0.0521    0.0000 C   0  0  0  0  0  0  0  0  0  0  0  0
    4.6660    4.4479    0.0000 C   0  0  0  0  0  0  0  0  0  0  0  0
    5.5321   -1.0521    0.0000 C   0  0  0  0  0  0  0  0  0  0  0  0
    6.3981    6.4479    0.0000 C   0  0  0  0  0  0  0  0  0  0  0  0
    3.8000    4.9479    0.0000 C   0  0  0  0  0  0  0  0  0  0  0  0
    5.5321    5.9479    0.0000 C   0  0  0  0  0  0  0  0  0  0  0  0
    3.8000    5.9479    0.0000 C   0  0  0  0  0  0  0  0  0  0  0  0
    6.3981   -1.5521    0.0000 C   0  0  0  0  0  0  0  0  0  0  0  0
    7.2641    6.9479    0.0000 C   0  0  0  0  0  0  0  0  0  0  0  0
    5.8981    7.3140    0.0000 C   0  0  0  0  0  0  0  0  0  0  0  0
    6.8981    5.5819    0.0000 C   0  0  0  0  0  0  0  0  0  0  0  0
    2.9061    4.4133    0.0000 C   0  0  0  0  0  0  0  0  0  0  0  0
    2.9061    6.4826    0.0000 C   0  0  0  0  0  0  0  0  0  0  0  0
    2.0000    4.9271    0.0000 C   0  0  0  0  0  0  0  0  0  0  0  0
    2.0000    5.9687    0.0000 C   0  0  0  0  0  0  0  0  0  0  0  0
    7.2641   -3.0521    0.0000 C   0  0  0  0  0  0  0  0  0  0  0  0
    7.2641   -4.0521    0.0000 C   0  0  0  0  0  0  0  0  0  0  0  0
    8.0688   -4.6357    0.0000 C   0  0  0  0  0  0  0  0  0  0  0  0
    6.7641   -5.5819    0.0000 C   0  0  0  0  0  0  0  0  0  0  0  0
    8.2641   -6.4479    0.0000 C   0  0  0  0  0  0  0  0  0  0  0  0
    6.2641   -6.4479    0.0000 C   0  0  0  0  0  0  0  0  0  0  0  0
    7.7641   -7.3140    0.0000 C   0  0  0  0  0  0  0  0  0  0  0  0
    6.7641   -7.3140    0.0000 C   0  0  0  0  0  0  0  0  0  0  0  0
    5.7441    1.3653    0.0000 H   0  0  0  0  0  0  0  0  0  0  0  0
    6.1426    2.0556    0.0000 H   0  0  0  0  0  0  0  0  0  0  0  0
    3.1894    2.0556    0.0000 H   0  0  0  0  0  0  0  0  0  0  0  0
    3.5880    1.3653    0.0000 H   0  0  0  0  0  0  0  0  0  0  0  0
    6.1426    2.8403    0.0000 H   0  0  0  0  0  0  0  0  0  0  0  0
    5.7441    3.5305    0.0000 H   0  0  0  0  0  0  0  0  0  0  0  0
    3.5880    3.5305    0.0000 H   0  0  0  0  0  0  0  0  0  0  0  0
    3.1894    2.8403    0.0000 H   0  0  0  0  0  0  0  0  0  0  0  0
    4.0555    0.5556    0.0000 H   0  0  0  0  0  0  0  0  0  0  0  0
    4.4540   -0.1347    0.0000 H   0  0  0  0  0  0  0  0  0  0  0  0
    6.1426   -0.1597    0.0000 H   0  0  0  0  0  0  0  0  0  0  0  0
    5.7441    0.5305    0.0000 H   0  0  0  0  0  0  0  0  0  0  0  0
    4.9215   -0.9444    0.0000 H   0  0  0  0  0  0  0  0  0  0  0  0
    5.3200   -1.6347    0.0000 H   0  0  0  0  0  0  0  0  0  0  0  0
    7.0087   -1.6597    0.0000 H   0  0  0  0  0  0  0  0  0  0  0  0
    6.6101   -0.9695    0.0000 H   0  0  0  0  0  0  0  0  0  0  0  0
    7.5741    6.4110    0.0000 H   0  0  0  0  0  0  0  0  0  0  0  0
    7.8010    7.2579    0.0000 H   0  0  0  0  0  0  0  0  0  0  0  0
    6.9541    7.4849    0.0000 H   0  0  0  0  0  0  0  0  0  0  0  0
    6.4350    7.6240    0.0000 H   0  0  0  0  0  0  0  0  0  0  0  0
    5.5881    7.8509    0.0000 H   0  0  0  0  0  0  0  0  0  0  0  0
    5.3612    7.0040    0.0000 H   0  0  0  0  0  0  0  0  0  0  0  0
    6.3612    5.2719    0.0000 H   0  0  0  0  0  0  0  0  0  0  0  0
    7.2081    5.0450    0.0000 H   0  0  0  0  0  0  0  0  0  0  0  0
    7.4350    5.8919    0.0000 H   0  0  0  0  0  0  0  0  0  0  0  0
    2.9132    3.7933    0.0000 H   0  0  0  0  0  0  0  0  0  0  0  0
    2.9132    7.1026    0.0000 H   0  0  0  0  0  0  0  0  0  0  0  0
    5.8612   -2.8621    0.0000 H   0  0  0  0  0  0  0  0  0  0  0  0
    1.4643    4.6150    0.0000 H   0  0  0  0  0  0  0  0  0  0  0  0
    1.4643    6.2808    0.0000 H   0  0  0  0  0  0  0  0  0  0  0  0
    8.6582   -4.4431    0.0000 H   0  0  0  0  0  0  0  0  0  0  0  0
    8.8841   -6.4479    0.0000 H   0  0  0  0  0  0  0  0  0  0  0  0
    5.6441   -6.4479    0.0000 H   0  0  0  0  0  0  0  0  0  0  0  0
    8.0741   -7.8509    0.0000 H   0  0  0  0  0  0  0  0  0  0  0  0
    6.4541   -7.8509    0.0000 H   0  0  0  0  0  0  0  0  0  0  0  0
  1 29  2  0  0  0  0
  2  9  1  0  0  0  0
  2 10  1  0  0  0  0
  2 13  1  0  0  0  0
  3 11  1  0  0  0  0
  3 12  1  0  0  0  0
  3 15  1  0  0  0  0
  4 15  2  0  0  0  0
  4 19  1  0  0  0  0
  5 19  2  0  0  0  0
  5 20  1  0  0  0  0
  6 21  1  0  0  0  0
  6 29  1  0  0  0  0
  6 64  1  0  0  0  0
  7 31  1  0  0  0  0
  7 32  1  0  0  0  0
  7 33  1  0  0  0  0
  8 30  1  0  0  0  0
  8 32  2  0  0  0  0
  9 11  1  0  0  0  0
  9 37  1  0  0  0  0
  9 38  1  0  0  0  0
 10 12  1  0  0  0  0
 10 39  1  0  0  0  0
 10 40  1  0  0  0  0
 11 41  1  0  0  0  0
 11 42  1  0  0  0  0
 12 43  1  0  0  0  0
 12 44  1  0  0  0  0
 13 14  1  0  0  0  0
 13 45  1  0  0  0  0
 13 46  1  0  0  0  0
 14 16  1  0  0  0  0
 14 47  1  0  0  0  0
 14 48  1  0  0  0  0
 15 18  1  0  0  0  0
 16 21  1  0  0  0  0
 16 49  1  0  0  0  0
 16 50  1  0  0  0  0
 17 19  1  0  0  0  0
 17 22  1  0  0  0  0
 17 23  1  0  0  0  0
 17 24  1  0  0  0  0
 18 20  1  0  0  0  0
 18 25  2  0  0  0  0
 20 26  2  0  0  0  0
 21 51  1  0  0  0  0
 21 52  1  0  0  0  0
 22 53  1  0  0  0  0
 22 54  1  0  0  0  0
 22 55  1  0  0  0  0
 23 56  1  0  0  0  0
 23 57  1  0  0  0  0
 23 58  1  0  0  0  0
 24 59  1  0  0  0  0
 24 60  1  0  0  0  0
 24 61  1  0  0  0  0
 25 27  1  0  0  0  0
 25 62  1  0  0  0  0
 26 28  1  0  0  0  0
 26 63  1  0  0  0  0
 27 28  2  0  0  0  0
 27 65  1  0  0  0  0
 28 66  1  0  0  0  0
 29 30  1  0  0  0  0
 30 31  2  0  0  0  0
 31 67  1  0  0  0  0
 32 34  1  0  0  0  0
 33 35  2  0  0  0  0
 33 68  1  0  0  0  0
 34 36  2  0  0  0  0
 34 69  1  0  0  0  0
 35 36  1  0  0  0  0
 35 70  1  0  0  0  0
 36 71  1  0  0  0  0
M  END
> <PUBCHEM_COMPOUND_CID>
117871083

> <PUBCHEM_COMPOUND_CANONICALIZED>
1

> <PUBCHEM_CACTVS_COMPLEXITY>
719

> <PUBCHEM_CACTVS_HBOND_ACCEPTOR>
6

> <PUBCHEM_CACTVS_HBOND_DONOR>
1

> <PUBCHEM_CACTVS_ROTATABLE_BOND>
8

> <PUBCHEM_CACTVS_SUBSKEYS>
AAADcfB7oAAAAAAAAAAAAAAAAAAAAWAAAAA8WLEAAAAAAFix/gAAHgAQAAAADgjBnwQ/8P/MGACoAzd3dACCgC03EqAJ2KG4dNiIaOrA2fGUJIholgLIyOcQgAAOAAAAAAACAAAAAAAAAAQAAAAAAAAAAA==

> <PUBCHEM_IUPAC_OPENEYE_NAME>
N-[4-[4-(2-tert-butylquinazolin-4-yl)piperazin-1-yl]butyl]imidazo[1,2-a]pyridine-2-carboxamide

> <PUBCHEM_IUPAC_CAS_NAME>
N-[4-[4-(2-tert-butyl-4-quinazolinyl)-1-piperazinyl]butyl]-2-imidazo[1,2-a]pyridinecarboxamide

> <PUBCHEM_IUPAC_NAME_MARKUP>
<I>N</I>-[4-[4-(2-<I>tert</I>-butylquinazolin-4-yl)piperazin-1-yl]butyl]imidazo[1,2-a]pyridine-2-carboxamide

> <PUBCHEM_IUPAC_NAME>
N-[4-[4-(2-tert-butylquinazolin-4-yl)piperazin-1-yl]butyl]imidazo[1,2-a]pyridine-2-carboxamide

> <PUBCHEM_IUPAC_SYSTEMATIC_NAME>
N-[4-[4-(2-tert-butylquinazolin-4-yl)piperazin-1-yl]butyl]imidazo[1,2-a]pyridine-2-carboxamide

> <PUBCHEM_IUPAC_TRADITIONAL_NAME>
N-[4-[4-(2-tert-butylquinazolin-4-yl)piperazino]butyl]imidazo[1,2-a]pyridine-2-carboxamide

> <PUBCHEM_IUPAC_INCHI>
InChI=1S/C28H35N7O/c1-28(2,3)27-31-22-11-5-4-10-21(22)25(32-27)34-18-16-33(17-19-34)14-9-7-13-29-26(36)23-20-35-15-8-6-12-24(35)30-23/h4-6,8,10-12,15,20H,7,9,13-14,16-19H2,1-3H3,(H,29,36)

> <PUBCHEM_IUPAC_INCHIKEY>
FQJVIZLZSFQUTO-UHFFFAOYSA-N

> <PUBCHEM_XLOGP3_AA>
5.4

> <PUBCHEM_EXACT_MASS>
485.29030877

> <PUBCHEM_MOLECULAR_FORMULA>
C28H35N7O

> <PUBCHEM_MOLECULAR_WEIGHT>
485.6

> <PUBCHEM_OPENEYE_CAN_SMILES>
CC(C)(C)C1=NC2=CC=CC=C2C(=N1)N3CCN(CC3)CCCCNC(=O)C4=CN5C=CC=CC5=N4

> <PUBCHEM_OPENEYE_ISO_SMILES>
CC(C)(C)C1=NC2=CC=CC=C2C(=N1)N3CCN(CC3)CCCCNC(=O)C4=CN5C=CC=CC5=N4

> <PUBCHEM_CACTVS_TPSA>
78.7

> <PUBCHEM_MONOISOTOPIC_WEIGHT>
485.29030877

> <PUBCHEM_TOTAL_CHARGE>
0

> <PUBCHEM_HEAVY_ATOM_COUNT>
36

> <PUBCHEM_ATOM_DEF_STEREO_COUNT>
0

> <PUBCHEM_ATOM_UDEF_STEREO_COUNT>
0

> <PUBCHEM_BOND_DEF_STEREO_COUNT>
0

> <PUBCHEM_BOND_UDEF_STEREO_COUNT>
0

> <PUBCHEM_ISOTOPIC_ATOM_COUNT>
0

> <PUBCHEM_COMPONENT_COUNT>
1

> <PUBCHEM_CACTVS_TAUTO_COUNT>
-1

> <PUBCHEM_COORDINATE_TYPE>
1
5
255

> <PUBCHEM_BONDANNOTATIONS>
15  18  8
18  20  8
18  25  8
20  26  8
25  27  8
26  28  8
27  28  8
30  31  8
32  34  8
33  35  8
34  36  8
35  36  8
4  15  8
4  19  8
5  19  8
5  20  8
7  31  8
7  32  8
7  33  8
8  30  8
8  32  8

$$$$
