164916972
  -OEChem-09292322442D

 65 68  0     0  0  0  0  0  0999 V2000
    2.1077   -3.2500    0.0000 Cl  0  0  0  0  0  0  0  0  0  0  0  0
    2.1077   -5.2500    0.0000 Cl  0  0  0  0  0  0  0  0  0  0  0  0
    3.2057    1.3840    0.0000 O   0  0  0  0  0  0  0  0  0  0  0  0
    3.8397   -0.2500    0.0000 N   0  0  0  0  0  0  0  0  0  0  0  0
    3.8397   -2.2500    0.0000 N   0  0  0  0  0  0  0  0  0  0  0  0
    2.7660    2.5920    0.0000 N   0  0  0  0  0  0  0  0  0  0  0  0
    4.7057    2.2500    0.0000 C   0  0  0  0  0  0  0  0  0  0  0  0
    4.7057    1.2500    0.0000 C   0  0  0  0  0  0  0  0  0  0  0  0
    3.8397    0.7500    0.0000 C   0  0  0  0  0  0  0  0  0  0  0  0
    2.9737   -0.7500    0.0000 C   0  0  0  0  0  0  0  0  0  0  0  0
    4.7057   -0.7500    0.0000 C   0  0  0  0  0  0  0  0  0  0  0  0
    2.9737   -1.7500    0.0000 C   0  0  0  0  0  0  0  0  0  0  0  0
    4.7057   -1.7500    0.0000 C   0  0  0  0  0  0  0  0  0  0  0  0
    4.7057    3.2500    0.0000 C   0  0  0  0  0  0  0  0  0  0  0  0
    5.7057    2.2500    0.0000 C   0  0  0  0  0  0  0  0  0  0  0  0
    3.7057    2.2500    0.0000 C   0  0  0  0  0  0  0  0  0  0  0  0
    3.8397   -3.2500    0.0000 C   0  0  0  0  0  0  0  0  0  0  0  0
    5.5718    3.7500    0.0000 C   0  0  0  0  0  0  0  0  0  0  0  0
    6.2057    3.1160    0.0000 C   0  0  0  0  0  0  0  0  0  0  0  0
    3.8397    3.7500    0.0000 C   0  0  0  0  0  0  0  0  0  0  0  0
    6.2057    1.3840    0.0000 C   0  0  0  0  0  0  0  0  0  0  0  0
    2.9737   -3.7500    0.0000 C   0  0  0  0  0  0  0  0  0  0  0  0
    4.7057   -3.7500    0.0000 C   0  0  0  0  0  0  0  0  0  0  0  0
    5.5718    4.7500    0.0000 C   0  0  0  0  0  0  0  0  0  0  0  0
    7.2057    3.1160    0.0000 C   0  0  0  0  0  0  0  0  0  0  0  0
    3.8397    4.7500    0.0000 C   0  0  0  0  0  0  0  0  0  0  0  0
    7.2057    1.3840    0.0000 C   0  0  0  0  0  0  0  0  0  0  0  0
    2.0000    1.9492    0.0000 C   0  0  0  0  0  0  0  0  0  0  0  0
    2.5924    3.5768    0.0000 C   0  0  0  0  0  0  0  0  0  0  0  0
    4.7057    5.2500    0.0000 C   0  0  0  0  0  0  0  0  0  0  0  0
    7.7057    2.2500    0.0000 C   0  0  0  0  0  0  0  0  0  0  0  0
    2.9737   -4.7500    0.0000 C   0  0  0  0  0  0  0  0  0  0  0  0
    4.7057   -4.7500    0.0000 C   0  0  0  0  0  0  0  0  0  0  0  0
    3.8397   -5.2500    0.0000 C   0  0  0  0  0  0  0  0  0  0  0  0
    4.9178    0.6674    0.0000 H   0  0  0  0  0  0  0  0  0  0  0  0
    5.3163    1.3577    0.0000 H   0  0  0  0  0  0  0  0  0  0  0  0
    3.6277    1.3326    0.0000 H   0  0  0  0  0  0  0  0  0  0  0  0
    3.2291    0.6423    0.0000 H   0  0  0  0  0  0  0  0  0  0  0  0
    2.7616   -0.1674    0.0000 H   0  0  0  0  0  0  0  0  0  0  0  0
    2.3631   -0.8577    0.0000 H   0  0  0  0  0  0  0  0  0  0  0  0
    5.3163   -0.8577    0.0000 H   0  0  0  0  0  0  0  0  0  0  0  0
    4.9178   -0.1674    0.0000 H   0  0  0  0  0  0  0  0  0  0  0  0
    2.3631   -1.6423    0.0000 H   0  0  0  0  0  0  0  0  0  0  0  0
    2.7616   -2.3326    0.0000 H   0  0  0  0  0  0  0  0  0  0  0  0
    4.9178   -2.3326    0.0000 H   0  0  0  0  0  0  0  0  0  0  0  0
    5.3163   -1.6423    0.0000 H   0  0  0  0  0  0  0  0  0  0  0  0
    6.1087    3.4400    0.0000 H   0  0  0  0  0  0  0  0  0  0  0  0
    5.8957    3.6530    0.0000 H   0  0  0  0  0  0  0  0  0  0  0  0
    3.3028    3.4400    0.0000 H   0  0  0  0  0  0  0  0  0  0  0  0
    5.8957    0.8470    0.0000 H   0  0  0  0  0  0  0  0  0  0  0  0
    5.2427   -3.4400    0.0000 H   0  0  0  0  0  0  0  0  0  0  0  0
    6.1087    5.0600    0.0000 H   0  0  0  0  0  0  0  0  0  0  0  0
    7.5157    3.6530    0.0000 H   0  0  0  0  0  0  0  0  0  0  0  0
    3.3028    5.0600    0.0000 H   0  0  0  0  0  0  0  0  0  0  0  0
    7.5157    0.8470    0.0000 H   0  0  0  0  0  0  0  0  0  0  0  0
    1.6015    2.4242    0.0000 H   0  0  0  0  0  0  0  0  0  0  0  0
    1.5250    1.5507    0.0000 H   0  0  0  0  0  0  0  0  0  0  0  0
    2.3985    1.4743    0.0000 H   0  0  0  0  0  0  0  0  0  0  0  0
    3.2030    3.6845    0.0000 H   0  0  0  0  0  0  0  0  0  0  0  0
    2.4847    4.1874    0.0000 H   0  0  0  0  0  0  0  0  0  0  0  0
    1.9818    3.4692    0.0000 H   0  0  0  0  0  0  0  0  0  0  0  0
    4.7057    5.8700    0.0000 H   0  0  0  0  0  0  0  0  0  0  0  0
    8.3257    2.2500    0.0000 H   0  0  0  0  0  0  0  0  0  0  0  0
    5.2427   -5.0600    0.0000 H   0  0  0  0  0  0  0  0  0  0  0  0
    3.8397   -5.8700    0.0000 H   0  0  0  0  0  0  0  0  0  0  0  0
  1 22  1  0  0  0  0
  2 32  1  0  0  0  0
  3 16  2  0  0  0  0
  4  9  1  0  0  0  0
  4 10  1  0  0  0  0
  4 11  1  0  0  0  0
  5 12  1  0  0  0  0
  5 13  1  0  0  0  0
  5 17  1  0  0  0  0
  6 16  1  0  0  0  0
  6 28  1  0  0  0  0
  6 29  1  0  0  0  0
  7  8  1  0  0  0  0
  7 14  1  0  0  0  0
  7 15  1  0  0  0  0
  7 16  1  0  0  0  0
  8  9  1  0  0  0  0
  8 35  1  0  0  0  0
  8 36  1  0  0  0  0
  9 37  1  0  0  0  0
  9 38  1  0  0  0  0
 10 12  1  0  0  0  0
 10 39  1  0  0  0  0
 10 40  1  0  0  0  0
 11 13  1  0  0  0  0
 11 41  1  0  0  0  0
 11 42  1  0  0  0  0
 12 43  1  0  0  0  0
 12 44  1  0  0  0  0
 13 45  1  0  0  0  0
 13 46  1  0  0  0  0
 14 18  2  0  0  0  0
 14 20  1  0  0  0  0
 15 19  2  0  0  0  0
 15 21  1  0  0  0  0
 17 22  2  0  0  0  0
 17 23  1  0  0  0  0
 18 24  1  0  0  0  0
 18 47  1  0  0  0  0
 19 25  1  0  0  0  0
 19 48  1  0  0  0  0
 20 26  2  0  0  0  0
 20 49  1  0  0  0  0
 21 27  2  0  0  0  0
 21 50  1  0  0  0  0
 22 32  1  0  0  0  0
 23 33  2  0  0  0  0
 23 51  1  0  0  0  0
 24 30  2  0  0  0  0
 24 52  1  0  0  0  0
 25 31  2  0  0  0  0
 25 53  1  0  0  0  0
 26 30  1  0  0  0  0
 26 54  1  0  0  0  0
 27 31  1  0  0  0  0
 27 55  1  0  0  0  0
 28 56  1  0  0  0  0
 28 57  1  0  0  0  0
 28 58  1  0  0  0  0
 29 59  1  0  0  0  0
 29 60  1  0  0  0  0
 29 61  1  0  0  0  0
 30 62  1  0  0  0  0
 31 63  1  0  0  0  0
 32 34  2  0  0  0  0
 33 34  1  0  0  0  0
 33 64  1  0  0  0  0
 34 65  1  0  0  0  0
M  END
> <PUBCHEM_COMPOUND_CID>
164916972

> <PUBCHEM_COMPOUND_CANONICALIZED>
1

> <PUBCHEM_CACTVS_COMPLEXITY>
622

> <PUBCHEM_CACTVS_HBOND_ACCEPTOR>
3

> <PUBCHEM_CACTVS_HBOND_DONOR>
0

> <PUBCHEM_CACTVS_ROTATABLE_BOND>
7

> <PUBCHEM_CACTVS_SUBSKEYS>
AAADceB7IAAGAAAAAAAAAAAAAAAAAAAAAAA8YMEAAAAAAAABUAAAHgIAAAAADgrBmCQywIMAAACIAiVSUACCAAAhBwAIikEIZogIYDLBl5HUIAhgggDIyAcciMCPgAAAAAIAABQAAAAABAAAKAAAAAAAAA==

> <PUBCHEM_IUPAC_OPENEYE_NAME>
4-[4-(2,3-dichlorophenyl)piperazin-1-yl]-N,N-dimethyl-2,2-diphenyl-butanamide

> <PUBCHEM_IUPAC_CAS_NAME>
4-[4-(2,3-dichlorophenyl)-1-piperazinyl]-N,N-dimethyl-2,2-diphenylbutanamide

> <PUBCHEM_IUPAC_NAME_MARKUP>
4-[4-(2,3-dichlorophenyl)piperazin-1-yl]-<I>N</I>,<I>N</I>-dimethyl-2,2-diphenylbutanamide

> <PUBCHEM_IUPAC_NAME>
4-[4-(2,3-dichlorophenyl)piperazin-1-yl]-N,N-dimethyl-2,2-diphenylbutanamide

> <PUBCHEM_IUPAC_SYSTEMATIC_NAME>
4-[4-[2,3-bis(chloranyl)phenyl]piperazin-1-yl]-N,N-dimethyl-2,2-diphenyl-butanamide

> <PUBCHEM_IUPAC_TRADITIONAL_NAME>
4-[4-(2,3-dichlorophenyl)piperazino]-N,N-dimethyl-2,2-diphenyl-butyramide

> <PUBCHEM_IUPAC_INCHI>
InChI=1S/C28H31Cl2N3O/c1-31(2)27(34)28(22-10-5-3-6-11-22,23-12-7-4-8-13-23)16-17-32-18-20-33(21-19-32)25-15-9-14-24(29)26(25)30/h3-15H,16-21H2,1-2H3

> <PUBCHEM_IUPAC_INCHIKEY>
GCEDZTWELCPACO-UHFFFAOYSA-N

> <PUBCHEM_XLOGP3_AA>
6.1

> <PUBCHEM_EXACT_MASS>
495.1844180

> <PUBCHEM_MOLECULAR_FORMULA>
C28H31Cl2N3O

> <PUBCHEM_MOLECULAR_WEIGHT>
496.5

> <PUBCHEM_OPENEYE_CAN_SMILES>
CN(C)C(=O)C(CCN1CCN(CC1)C2=C(C(=CC=C2)Cl)Cl)(C3=CC=CC=C3)C4=CC=CC=C4

> <PUBCHEM_OPENEYE_ISO_SMILES>
CN(C)C(=O)C(CCN1CCN(CC1)C2=C(C(=CC=C2)Cl)Cl)(C3=CC=CC=C3)C4=CC=CC=C4

> <PUBCHEM_CACTVS_TPSA>
26.8

> <PUBCHEM_MONOISOTOPIC_WEIGHT>
495.1844180

> <PUBCHEM_TOTAL_CHARGE>
0

> <PUBCHEM_HEAVY_ATOM_COUNT>
34

> <PUBCHEM_ATOM_DEF_STEREO_COUNT>
0

> <PUBCHEM_ATOM_UDEF_STEREO_COUNT>
0

> <PUBCHEM_BOND_DEF_STEREO_COUNT>
0

> <PUBCHEM_BOND_UDEF_STEREO_COUNT>
0

> <PUBCHEM_ISOTOPIC_ATOM_COUNT>
0

> <PUBCHEM_COMPONENT_COUNT>
1

> <PUBCHEM_CACTVS_TAUTO_COUNT>
-1

> <PUBCHEM_COORDINATE_TYPE>
1
5
255

> <PUBCHEM_BONDANNOTATIONS>
14  18  8
14  20  8
15  19  8
15  21  8
17  22  8
17  23  8
18  24  8
19  25  8
20  26  8
21  27  8
22  32  8
23  33  8
24  30  8
25  31  8
26  30  8
27  31  8
32  34  8
33  34  8

$$$$
