44370058
  -OEChem-09292322222D

 49 52  0     0  0  0  0  0  0999 V2000
    8.1421    4.9015    0.0000 O   0  0  0  0  0  0  0  0  0  0  0  0
    6.2781   -0.8016    0.0000 N   0  0  0  0  0  0  0  0  0  0  0  0
    6.8994    1.0994    0.0000 N   0  0  0  0  0  0  0  0  0  0  0  0
    4.6783   -4.5184    0.0000 N   0  0  0  0  0  0  0  0  0  0  0  0
    2.8660   -4.7136    0.0000 N   0  0  0  0  0  0  0  0  0  0  0  0
    7.2566   -0.5954    0.0000 C   0  0  0  0  0  0  0  0  0  0  0  0
    5.6103   -0.0573    0.0000 C   0  0  0  0  0  0  0  0  0  0  0  0
    7.5673    0.3551    0.0000 C   0  0  0  0  0  0  0  0  0  0  0  0
    5.9209    0.8932    0.0000 C   0  0  0  0  0  0  0  0  0  0  0  0
    5.9674   -1.7522    0.0000 C   0  0  0  0  0  0  0  0  0  0  0  0
    4.9889   -1.9584    0.0000 C   0  0  0  0  0  0  0  0  0  0  0  0
    7.2101    2.0499    0.0000 C   0  0  0  0  0  0  0  0  0  0  0  0
    4.6783   -2.9089    0.0000 C   0  0  0  0  0  0  0  0  0  0  0  0
    3.7320   -3.2136    0.0000 C   0  0  0  0  0  0  0  0  0  0  0  0
    8.1886    2.2561    0.0000 C   0  0  0  0  0  0  0  0  0  0  0  0
    6.5422    2.7942    0.0000 C   0  0  0  0  0  0  0  0  0  0  0  0
    5.2619   -3.7136    0.0000 C   0  0  0  0  0  0  0  0  0  0  0  0
    3.7320   -4.2136    0.0000 C   0  0  0  0  0  0  0  0  0  0  0  0
    2.8660   -2.7136    0.0000 C   0  0  0  0  0  0  0  0  0  0  0  0
    8.4993    3.2066    0.0000 C   0  0  0  0  0  0  0  0  0  0  0  0
    6.8529    3.7447    0.0000 C   0  0  0  0  0  0  0  0  0  0  0  0
    7.8314    3.9510    0.0000 C   0  0  0  0  0  0  0  0  0  0  0  0
    2.0000   -3.2136    0.0000 C   0  0  0  0  0  0  0  0  0  0  0  0
    2.0000   -4.2136    0.0000 C   0  0  0  0  0  0  0  0  0  0  0  0
    9.1206    5.1077    0.0000 C   0  0  0  0  0  0  0  0  0  0  0  0
    7.2772   -1.2151    0.0000 H   0  0  0  0  0  0  0  0  0  0  0  0
    7.8704   -0.6828    0.0000 H   0  0  0  0  0  0  0  0  0  0  0  0
    5.0633    0.2347    0.0000 H   0  0  0  0  0  0  0  0  0  0  0  0
    5.2277   -0.5453    0.0000 H   0  0  0  0  0  0  0  0  0  0  0  0
    8.1142    0.0631    0.0000 H   0  0  0  0  0  0  0  0  0  0  0  0
    7.9498    0.8430    0.0000 H   0  0  0  0  0  0  0  0  0  0  0  0
    5.9004    1.5128    0.0000 H   0  0  0  0  0  0  0  0  0  0  0  0
    5.3071    0.9805    0.0000 H   0  0  0  0  0  0  0  0  0  0  0  0
    5.9880   -2.3718    0.0000 H   0  0  0  0  0  0  0  0  0  0  0  0
    6.5812   -1.8395    0.0000 H   0  0  0  0  0  0  0  0  0  0  0  0
    4.9684   -1.3387    0.0000 H   0  0  0  0  0  0  0  0  0  0  0  0
    4.3751   -1.8710    0.0000 H   0  0  0  0  0  0  0  0  0  0  0  0
    5.8819   -3.7136    0.0000 H   0  0  0  0  0  0  0  0  0  0  0  0
    8.6027    1.7947    0.0000 H   0  0  0  0  0  0  0  0  0  0  0  0
    5.9356    2.6664    0.0000 H   0  0  0  0  0  0  0  0  0  0  0  0
    4.8709   -5.1077    0.0000 H   0  0  0  0  0  0  0  0  0  0  0  0
    2.8660   -2.0936    0.0000 H   0  0  0  0  0  0  0  0  0  0  0  0
    9.1059    3.3345    0.0000 H   0  0  0  0  0  0  0  0  0  0  0  0
    6.4388    4.2062    0.0000 H   0  0  0  0  0  0  0  0  0  0  0  0
    1.4631   -2.9036    0.0000 H   0  0  0  0  0  0  0  0  0  0  0  0
    1.4631   -4.5236    0.0000 H   0  0  0  0  0  0  0  0  0  0  0  0
    9.2484    4.5010    0.0000 H   0  0  0  0  0  0  0  0  0  0  0  0
    9.7272    5.2356    0.0000 H   0  0  0  0  0  0  0  0  0  0  0  0
    8.9927    5.7144    0.0000 H   0  0  0  0  0  0  0  0  0  0  0  0
  1 22  1  0  0  0  0
  1 25  1  0  0  0  0
  2  6  1  0  0  0  0
  2  7  1  0  0  0  0
  2 10  1  0  0  0  0
  3  8  1  0  0  0  0
  3  9  1  0  0  0  0
  3 12  1  0  0  0  0
  4 17  1  0  0  0  0
  4 18  1  0  0  0  0
  4 41  1  0  0  0  0
  5 18  1  0  0  0  0
  5 24  2  0  0  0  0
  6  8  1  0  0  0  0
  6 26  1  0  0  0  0
  6 27  1  0  0  0  0
  7  9  1  0  0  0  0
  7 28  1  0  0  0  0
  7 29  1  0  0  0  0
  8 30  1  0  0  0  0
  8 31  1  0  0  0  0
  9 32  1  0  0  0  0
  9 33  1  0  0  0  0
 10 11  1  0  0  0  0
 10 34  1  0  0  0  0
 10 35  1  0  0  0  0
 11 13  1  0  0  0  0
 11 36  1  0  0  0  0
 11 37  1  0  0  0  0
 12 15  2  0  0  0  0
 12 16  1  0  0  0  0
 13 14  1  0  0  0  0
 13 17  2  0  0  0  0
 14 18  2  0  0  0  0
 14 19  1  0  0  0  0
 15 20  1  0  0  0  0
 15 39  1  0  0  0  0
 16 21  2  0  0  0  0
 16 40  1  0  0  0  0
 17 38  1  0  0  0  0
 19 23  2  0  0  0  0
 19 42  1  0  0  0  0
 20 22  2  0  0  0  0
 20 43  1  0  0  0  0
 21 22  1  0  0  0  0
 21 44  1  0  0  0  0
 23 24  1  0  0  0  0
 23 45  1  0  0  0  0
 24 46  1  0  0  0  0
 25 47  1  0  0  0  0
 25 48  1  0  0  0  0
 25 49  1  0  0  0  0
M  END
> <PUBCHEM_COMPOUND_CID>
44370058

> <PUBCHEM_COMPOUND_CANONICALIZED>
1

> <PUBCHEM_CACTVS_COMPLEXITY>
405

> <PUBCHEM_CACTVS_HBOND_ACCEPTOR>
4

> <PUBCHEM_CACTVS_HBOND_DONOR>
1

> <PUBCHEM_CACTVS_ROTATABLE_BOND>
5

> <PUBCHEM_CACTVS_SUBSKEYS>
AAADceB7oAAAAAAAAAAAAAAAAAAAAWAAAAA8WIAAAAAAAFgB/AAAHgAQAAAADAzBmwY/9t/JlACgAjZnZACCiCmxIqAJ2aA+bJiMbuLEuZuUMChswBPI6CewwAAOgEAAAAAAAAAAgAAAAAAAAAAAAAAAAA==

> <PUBCHEM_IUPAC_OPENEYE_NAME>
3-[2-[4-(4-methoxyphenyl)piperazin-1-yl]ethyl]-1H-pyrrolo[2,3-b]pyridine

> <PUBCHEM_IUPAC_CAS_NAME>
3-[2-[4-(4-methoxyphenyl)-1-piperazinyl]ethyl]-1H-pyrrolo[2,3-b]pyridine

> <PUBCHEM_IUPAC_NAME_MARKUP>
3-[2-[4-(4-methoxyphenyl)piperazin-1-yl]ethyl]-1<I>H</I>-pyrrolo[2,3-b]pyridine

> <PUBCHEM_IUPAC_NAME>
3-[2-[4-(4-methoxyphenyl)piperazin-1-yl]ethyl]-1H-pyrrolo[2,3-b]pyridine

> <PUBCHEM_IUPAC_SYSTEMATIC_NAME>
3-[2-[4-(4-methoxyphenyl)piperazin-1-yl]ethyl]-1H-pyrrolo[2,3-b]pyridine

> <PUBCHEM_IUPAC_TRADITIONAL_NAME>
3-[2-[4-(4-methoxyphenyl)piperazino]ethyl]-1H-pyrrolo[2,3-b]pyridine

> <PUBCHEM_IUPAC_INCHI>
InChI=1S/C20H24N4O/c1-25-18-6-4-17(5-7-18)24-13-11-23(12-14-24)10-8-16-15-22-20-19(16)3-2-9-21-20/h2-7,9,15H,8,10-14H2,1H3,(H,21,22)

> <PUBCHEM_IUPAC_INCHIKEY>
DUTVAWSMMMBCQT-UHFFFAOYSA-N

> <PUBCHEM_XLOGP3_AA>
3.2

> <PUBCHEM_EXACT_MASS>
336.19501140

> <PUBCHEM_MOLECULAR_FORMULA>
C20H24N4O

> <PUBCHEM_MOLECULAR_WEIGHT>
336.4

> <PUBCHEM_OPENEYE_CAN_SMILES>
COC1=CC=C(C=C1)N2CCN(CC2)CCC3=CNC4=C3C=CC=N4

> <PUBCHEM_OPENEYE_ISO_SMILES>
COC1=CC=C(C=C1)N2CCN(CC2)CCC3=CNC4=C3C=CC=N4

> <PUBCHEM_CACTVS_TPSA>
44.4

> <PUBCHEM_MONOISOTOPIC_WEIGHT>
336.19501140

> <PUBCHEM_TOTAL_CHARGE>
0

> <PUBCHEM_HEAVY_ATOM_COUNT>
25

> <PUBCHEM_ATOM_DEF_STEREO_COUNT>
0

> <PUBCHEM_ATOM_UDEF_STEREO_COUNT>
0

> <PUBCHEM_BOND_DEF_STEREO_COUNT>
0

> <PUBCHEM_BOND_UDEF_STEREO_COUNT>
0

> <PUBCHEM_ISOTOPIC_ATOM_COUNT>
0

> <PUBCHEM_COMPONENT_COUNT>
1

> <PUBCHEM_CACTVS_TAUTO_COUNT>
-1

> <PUBCHEM_COORDINATE_TYPE>
1
5
255

> <PUBCHEM_BONDANNOTATIONS>
12  15  8
12  16  8
13  14  8
13  17  8
14  18  8
14  19  8
15  20  8
16  21  8
19  23  8
20  22  8
21  22  8
23  24  8
4  17  8
4  18  8
5  18  8
5  24  8

$$$$
