118719802
  -OEChem-09292322362D

 61 64  0     0  0  0  0  0  0999 V2000
    9.9058    7.1783    0.0000 F   0  0  0  0  0  0  0  0  0  0  0  0
    2.8660   -5.1783    0.0000 O   0  0  0  0  0  0  0  0  0  0  0  0
    4.5981   -2.1783    0.0000 N   0  0  0  0  0  0  0  0  0  0  0  0
    4.5981   -4.1783    0.0000 N   0  0  0  0  0  0  0  0  0  0  0  0
    8.2788    3.5241    0.0000 N   0  0  0  0  0  0  0  0  0  0  0  0
    8.1097    1.9150    0.0000 N   0  0  0  0  0  0  0  0  0  0  0  0
    8.7788    2.6581    0.0000 N   0  0  0  0  0  0  0  0  0  0  0  0
    5.4641   -2.6783    0.0000 C   0  0  0  0  0  0  0  0  0  0  0  0
    3.7320   -2.6783    0.0000 C   0  0  0  0  0  0  0  0  0  0  0  0
    5.4641   -3.6783    0.0000 C   0  0  0  0  0  0  0  0  0  0  0  0
    3.7320   -3.6783    0.0000 C   0  0  0  0  0  0  0  0  0  0  0  0
    4.5981   -1.1783    0.0000 C   0  0  0  0  0  0  0  0  0  0  0  0
    5.4641   -0.6783    0.0000 C   0  0  0  0  0  0  0  0  0  0  0  0
    5.4641    0.3217    0.0000 C   0  0  0  0  0  0  0  0  0  0  0  0
    4.5981   -5.1783    0.0000 C   0  0  0  0  0  0  0  0  0  0  0  0
    6.3301    0.8217    0.0000 C   0  0  0  0  0  0  0  0  0  0  0  0
    6.3301    1.8217    0.0000 C   0  0  0  0  0  0  0  0  0  0  0  0
    3.7320   -5.6783    0.0000 C   0  0  0  0  0  0  0  0  0  0  0  0
    5.4641   -5.6783    0.0000 C   0  0  0  0  0  0  0  0  0  0  0  0
    7.1962    2.3217    0.0000 C   0  0  0  0  0  0  0  0  0  0  0  0
    3.7320   -6.6783    0.0000 C   0  0  0  0  0  0  0  0  0  0  0  0
    5.4641   -6.6783    0.0000 C   0  0  0  0  0  0  0  0  0  0  0  0
    4.5981   -7.1783    0.0000 C   0  0  0  0  0  0  0  0  0  0  0  0
    7.3007    3.3162    0.0000 C   0  0  0  0  0  0  0  0  0  0  0  0
    2.0000   -5.6783    0.0000 C   0  0  0  0  0  0  0  0  0  0  0  0
    8.6856    4.4377    0.0000 C   0  0  0  0  0  0  0  0  0  0  0  0
    8.0978    5.2467    0.0000 C   0  0  0  0  0  0  0  0  0  0  0  0
    9.6801    4.5422    0.0000 C   0  0  0  0  0  0  0  0  0  0  0  0
    8.5045    6.1602    0.0000 C   0  0  0  0  0  0  0  0  0  0  0  0
   10.0868    5.4558    0.0000 C   0  0  0  0  0  0  0  0  0  0  0  0
    9.4990    6.2648    0.0000 C   0  0  0  0  0  0  0  0  0  0  0  0
    6.0747   -2.7860    0.0000 H   0  0  0  0  0  0  0  0  0  0  0  0
    5.6762   -2.0957    0.0000 H   0  0  0  0  0  0  0  0  0  0  0  0
    3.5200   -2.0957    0.0000 H   0  0  0  0  0  0  0  0  0  0  0  0
    3.1215   -2.7860    0.0000 H   0  0  0  0  0  0  0  0  0  0  0  0
    5.6762   -4.2609    0.0000 H   0  0  0  0  0  0  0  0  0  0  0  0
    6.0747   -3.5706    0.0000 H   0  0  0  0  0  0  0  0  0  0  0  0
    3.1215   -3.5706    0.0000 H   0  0  0  0  0  0  0  0  0  0  0  0
    3.5200   -4.2609    0.0000 H   0  0  0  0  0  0  0  0  0  0  0  0
    4.3860   -0.5957    0.0000 H   0  0  0  0  0  0  0  0  0  0  0  0
    3.9875   -1.2860    0.0000 H   0  0  0  0  0  0  0  0  0  0  0  0
    5.6762   -1.2609    0.0000 H   0  0  0  0  0  0  0  0  0  0  0  0
    6.0747   -0.5706    0.0000 H   0  0  0  0  0  0  0  0  0  0  0  0
    5.2520    0.9043    0.0000 H   0  0  0  0  0  0  0  0  0  0  0  0
    4.8535    0.2140    0.0000 H   0  0  0  0  0  0  0  0  0  0  0  0
    6.5422    0.2391    0.0000 H   0  0  0  0  0  0  0  0  0  0  0  0
    6.9407    0.9294    0.0000 H   0  0  0  0  0  0  0  0  0  0  0  0
    6.1181    2.4043    0.0000 H   0  0  0  0  0  0  0  0  0  0  0  0
    5.7196    1.7140    0.0000 H   0  0  0  0  0  0  0  0  0  0  0  0
    6.0010   -5.3683    0.0000 H   0  0  0  0  0  0  0  0  0  0  0  0
    3.1951   -6.9883    0.0000 H   0  0  0  0  0  0  0  0  0  0  0  0
    6.0010   -6.9883    0.0000 H   0  0  0  0  0  0  0  0  0  0  0  0
    4.5981   -7.7983    0.0000 H   0  0  0  0  0  0  0  0  0  0  0  0
    6.8399    3.7311    0.0000 H   0  0  0  0  0  0  0  0  0  0  0  0
    1.6900   -5.1414    0.0000 H   0  0  0  0  0  0  0  0  0  0  0  0
    1.4631   -5.9883    0.0000 H   0  0  0  0  0  0  0  0  0  0  0  0
    2.3100   -6.2152    0.0000 H   0  0  0  0  0  0  0  0  0  0  0  0
    7.4812    5.1819    0.0000 H   0  0  0  0  0  0  0  0  0  0  0  0
   10.0445    4.0406    0.0000 H   0  0  0  0  0  0  0  0  0  0  0  0
    8.1401    6.6618    0.0000 H   0  0  0  0  0  0  0  0  0  0  0  0
   10.7034    5.5206    0.0000 H   0  0  0  0  0  0  0  0  0  0  0  0
  1 31  1  0  0  0  0
  2 18  1  0  0  0  0
  2 25  1  0  0  0  0
  3  8  1  0  0  0  0
  3  9  1  0  0  0  0
  3 12  1  0  0  0  0
  4 10  1  0  0  0  0
  4 11  1  0  0  0  0
  4 15  1  0  0  0  0
  5  7  1  0  0  0  0
  5 24  1  0  0  0  0
  5 26  1  0  0  0  0
  6  7  2  0  0  0  0
  6 20  1  0  0  0  0
  8 10  1  0  0  0  0
  8 32  1  0  0  0  0
  8 33  1  0  0  0  0
  9 11  1  0  0  0  0
  9 34  1  0  0  0  0
  9 35  1  0  0  0  0
 10 36  1  0  0  0  0
 10 37  1  0  0  0  0
 11 38  1  0  0  0  0
 11 39  1  0  0  0  0
 12 13  1  0  0  0  0
 12 40  1  0  0  0  0
 12 41  1  0  0  0  0
 13 14  1  0  0  0  0
 13 42  1  0  0  0  0
 13 43  1  0  0  0  0
 14 16  1  0  0  0  0
 14 44  1  0  0  0  0
 14 45  1  0  0  0  0
 15 18  1  0  0  0  0
 15 19  2  0  0  0  0
 16 17  1  0  0  0  0
 16 46  1  0  0  0  0
 16 47  1  0  0  0  0
 17 20  1  0  0  0  0
 17 48  1  0  0  0  0
 17 49  1  0  0  0  0
 18 21  2  0  0  0  0
 19 22  1  0  0  0  0
 19 50  1  0  0  0  0
 20 24  2  0  0  0  0
 21 23  1  0  0  0  0
 21 51  1  0  0  0  0
 22 23  2  0  0  0  0
 22 52  1  0  0  0  0
 23 53  1  0  0  0  0
 24 54  1  0  0  0  0
 25 55  1  0  0  0  0
 25 56  1  0  0  0  0
 25 57  1  0  0  0  0
 26 27  2  0  0  0  0
 26 28  1  0  0  0  0
 27 29  1  0  0  0  0
 27 58  1  0  0  0  0
 28 30  2  0  0  0  0
 28 59  1  0  0  0  0
 29 31  2  0  0  0  0
 29 60  1  0  0  0  0
 30 31  1  0  0  0  0
 30 61  1  0  0  0  0
M  END
> <PUBCHEM_COMPOUND_CID>
118719802

> <PUBCHEM_COMPOUND_CANONICALIZED>
1

> <PUBCHEM_CACTVS_COMPLEXITY>
510

> <PUBCHEM_CACTVS_HBOND_ACCEPTOR>
6

> <PUBCHEM_CACTVS_HBOND_DONOR>
0

> <PUBCHEM_CACTVS_ROTATABLE_BOND>
9

> <PUBCHEM_CACTVS_SUBSKEYS>
AAADceB7oQAAAAAAAAAAAAAAAAAAAWAAAAA8YIAAAAAAAAAB0AAAHwAIAAAACAzBlg4+xpMIBACiATRnRACCDCQxsgAYmAA/fIgOZmLEsZuVMChkwBHY6AeQwAAAAAAAAAAAEAAAAAAAAAAgAAAAAAAAAA==

> <PUBCHEM_IUPAC_OPENEYE_NAME>
1-[5-[1-(4-fluorophenyl)triazol-4-yl]pentyl]-4-(2-methoxyphenyl)piperazine

> <PUBCHEM_IUPAC_CAS_NAME>
1-[5-[1-(4-fluorophenyl)-4-triazolyl]pentyl]-4-(2-methoxyphenyl)piperazine

> <PUBCHEM_IUPAC_NAME_MARKUP>
1-[5-[1-(4-fluorophenyl)triazol-4-yl]pentyl]-4-(2-methoxyphenyl)piperazine

> <PUBCHEM_IUPAC_NAME>
1-[5-[1-(4-fluorophenyl)triazol-4-yl]pentyl]-4-(2-methoxyphenyl)piperazine

> <PUBCHEM_IUPAC_SYSTEMATIC_NAME>
1-[5-[1-(4-fluorophenyl)-1,2,3-triazol-4-yl]pentyl]-4-(2-methoxyphenyl)piperazine

> <PUBCHEM_IUPAC_TRADITIONAL_NAME>
1-[5-[1-(4-fluorophenyl)triazol-4-yl]pentyl]-4-(2-methoxyphenyl)piperazine

> <PUBCHEM_IUPAC_INCHI>
InChI=1S/C24H30FN5O/c1-31-24-9-5-4-8-23(24)29-17-15-28(16-18-29)14-6-2-3-7-21-19-30(27-26-21)22-12-10-20(25)11-13-22/h4-5,8-13,19H,2-3,6-7,14-18H2,1H3

> <PUBCHEM_IUPAC_INCHIKEY>
GTEVNWICMPGDLY-UHFFFAOYSA-N

> <PUBCHEM_XLOGP3_AA>
4.4

> <PUBCHEM_EXACT_MASS>
423.24343876

> <PUBCHEM_MOLECULAR_FORMULA>
C24H30FN5O

> <PUBCHEM_MOLECULAR_WEIGHT>
423.5

> <PUBCHEM_OPENEYE_CAN_SMILES>
COC1=CC=CC=C1N2CCN(CC2)CCCCCC3=CN(N=N3)C4=CC=C(C=C4)F

> <PUBCHEM_OPENEYE_ISO_SMILES>
COC1=CC=CC=C1N2CCN(CC2)CCCCCC3=CN(N=N3)C4=CC=C(C=C4)F

> <PUBCHEM_CACTVS_TPSA>
46.4

> <PUBCHEM_MONOISOTOPIC_WEIGHT>
423.24343876

> <PUBCHEM_TOTAL_CHARGE>
0

> <PUBCHEM_HEAVY_ATOM_COUNT>
31

> <PUBCHEM_ATOM_DEF_STEREO_COUNT>
0

> <PUBCHEM_ATOM_UDEF_STEREO_COUNT>
0

> <PUBCHEM_BOND_DEF_STEREO_COUNT>
0

> <PUBCHEM_BOND_UDEF_STEREO_COUNT>
0

> <PUBCHEM_ISOTOPIC_ATOM_COUNT>
0

> <PUBCHEM_COMPONENT_COUNT>
1

> <PUBCHEM_CACTVS_TAUTO_COUNT>
-1

> <PUBCHEM_COORDINATE_TYPE>
1
5
255

> <PUBCHEM_BONDANNOTATIONS>
15  18  8
15  19  8
18  21  8
19  22  8
20  24  8
21  23  8
22  23  8
26  27  8
26  28  8
27  29  8
28  30  8
29  31  8
30  31  8
5  24  8
5  7  8
6  20  8
6  7  8

$$$$
