10169960
  -OEChem-09292322472D

124127  0     1  0  0  0  0  0999 V2000
    5.3147   -0.6310    0.0000 O   0  0  0  0  0  0  0  0  0  0  0  0
    4.0134    2.0108    0.0000 O   0  0  0  0  0  0  0  0  0  0  0  0
    6.1808   -1.1310    0.0000 O   0  0  0  0  0  0  0  0  0  0  0  0
    7.0745    0.1056    0.0000 O   0  0  0  0  0  0  0  0  0  0  0  0
    8.7788   -3.6310    0.0000 O   0  0  0  0  0  0  0  0  0  0  0  0
    3.5827   -6.6310    0.0000 O   0  0  0  0  0  0  0  0  0  0  0  0
    8.0255   -0.2034    0.0000 O   0  0  0  0  0  0  0  0  0  0  0  0
    9.7197    0.1567    0.0000 O   0  0  0  0  0  0  0  0  0  0  0  0
   11.3769   -1.1310    0.0000 O   0  0  0  0  0  0  0  0  0  0  0  0
    3.5827   -0.6310    0.0000 N   0  0  0  0  0  0  0  0  0  0  0  0
    5.1724    0.7236    0.0000 N   0  0  0  0  0  0  0  0  0  0  0  0
    5.3147   -2.6310    0.0000 N   0  0  0  0  0  0  0  0  0  0  0  0
    7.9128   -2.1310    0.0000 N   0  0  0  0  0  0  0  0  0  0  0  0
    7.6097    1.7528    0.0000 N   0  0  0  0  0  0  0  0  0  0  0  0
   10.5109   -2.6310    0.0000 N   0  0  0  0  0  0  0  0  0  0  0  0
    6.9860    4.6873    0.0000 N   0  0  0  0  0  0  0  0  0  0  0  0
    9.7651    3.8343    0.0000 N   0  0  0  0  0  0  0  0  0  0  0  0
   12.2429   -3.6310    0.0000 N   0  0  0  0  0  0  0  0  0  0  0  0
    8.2870    4.4924    0.0000 N   0  0  0  0  0  0  0  0  0  0  0  0
    7.5212    6.3346    0.0000 N   0  0  0  0  0  0  0  0  0  0  0  0
    5.8270    5.9745    0.0000 N   0  0  0  0  0  0  0  0  0  0  0  0
   14.0795   -3.6256    0.0000 N   0  0  0  0  0  0  0  0  0  0  0  0
   15.5577   -2.9674    0.0000 N   0  0  0  0  0  0  0  0  0  0  0  0
    3.4782    0.3635    0.0000 C   0  0  1  0  0  0  0  0  0  0  0  0
    2.5000    0.5714    0.0000 C   0  0  0  0  0  0  0  0  0  0  0  0
    2.0000   -0.2946    0.0000 C   0  0  0  0  0  0  0  0  0  0  0  0
    2.6691   -1.0378    0.0000 C   0  0  0  0  0  0  0  0  0  0  0  0
    4.4487   -1.1310    0.0000 C   0  0  0  0  0  0  0  0  0  0  0  0
    4.2213    1.0326    0.0000 C   0  0  0  0  0  0  0  0  0  0  0  0
    4.4487   -2.1310    0.0000 C   0  0  2  0  0  0  0  0  0  0  0  0
    3.5827   -2.6310    0.0000 C   0  0  0  0  0  0  0  0  0  0  0  0
    5.9155    1.3927    0.0000 C   0  0  1  0  0  0  0  0  0  0  0  0
    7.0468   -2.6310    0.0000 C   0  0  1  0  0  0  0  0  0  0  0  0
    7.0468   -3.6310    0.0000 C   0  0  2  0  0  0  0  0  0  0  0  0
    6.1808   -2.1310    0.0000 C   0  0  0  0  0  0  0  0  0  0  0  0
    5.7076    2.3709    0.0000 C   0  0  0  0  0  0  0  0  0  0  0  0
    3.5827   -3.6310    0.0000 C   0  0  0  0  0  0  0  0  0  0  0  0
    7.9128   -4.1310    0.0000 C   0  0  0  0  0  0  0  0  0  0  0  0
    6.8666    1.0837    0.0000 C   0  0  0  0  0  0  0  0  0  0  0  0
    6.4507    3.0400    0.0000 C   0  0  0  0  0  0  0  0  0  0  0  0
    6.1808   -4.1310    0.0000 C   0  0  0  0  0  0  0  0  0  0  0  0
    4.4487   -4.1310    0.0000 C   0  0  0  0  0  0  0  0  0  0  0  0
    2.7166   -4.1310    0.0000 C   0  0  0  0  0  0  0  0  0  0  0  0
    7.9128   -5.1310    0.0000 C   0  0  0  0  0  0  0  0  0  0  0  0
    6.2428    4.0182    0.0000 C   0  0  0  0  0  0  0  0  0  0  0  0
    8.7788   -2.6310    0.0000 C   0  0  0  0  0  0  0  0  0  0  0  0
    8.5608    1.4438    0.0000 C   0  0  1  0  0  0  0  0  0  0  0  0
    9.6448   -2.1310    0.0000 C   0  0  2  0  0  0  0  0  0  0  0  0
    4.4487   -5.1310    0.0000 C   0  0  0  0  0  0  0  0  0  0  0  0
    2.7166   -5.1310    0.0000 C   0  0  0  0  0  0  0  0  0  0  0  0
    9.3039    2.1130    0.0000 C   0  0  0  0  0  0  0  0  0  0  0  0
    3.5827   -5.6310    0.0000 C   0  0  0  0  0  0  0  0  0  0  0  0
    9.6448   -1.1310    0.0000 C   0  0  0  0  0  0  0  0  0  0  0  0
    8.7687    0.4657    0.0000 C   0  0  0  0  0  0  0  0  0  0  0  0
    9.0960    3.0911    0.0000 C   0  0  0  0  0  0  0  0  0  0  0  0
   11.3769   -2.1310    0.0000 C   0  0  0  0  0  0  0  0  0  0  0  0
   12.2429   -2.6310    0.0000 C   0  0  2  0  0  0  0  0  0  0  0  0
    6.7780    5.6654    0.0000 C   0  0  0  0  0  0  0  0  0  0  0  0
    8.1824    3.4978    0.0000 C   0  0  0  0  0  0  0  0  0  0  0  0
   13.1090   -2.1310    0.0000 C   0  0  0  0  0  0  0  0  0  0  0  0
    9.2651    4.7003    0.0000 C   0  0  0  0  0  0  0  0  0  0  0  0
   13.9750   -2.6310    0.0000 C   0  0  0  0  0  0  0  0  0  0  0  0
   14.8885   -2.2243    0.0000 C   0  0  0  0  0  0  0  0  0  0  0  0
   15.0577   -3.8335    0.0000 C   0  0  0  0  0  0  0  0  0  0  0  0
    4.0570    0.1413    0.0000 H   0  0  0  0  0  0  0  0  0  0  0  0
    2.6916    1.1611    0.0000 H   0  0  0  0  0  0  0  0  0  0  0  0
    1.9336    0.8236    0.0000 H   0  0  0  0  0  0  0  0  0  0  0  0
    1.4984    0.0698    0.0000 H   0  0  0  0  0  0  0  0  0  0  0  0
    1.5851   -0.7554    0.0000 H   0  0  0  0  0  0  0  0  0  0  0  0
    2.1675   -1.4022    0.0000 H   0  0  0  0  0  0  0  0  0  0  0  0
    2.9791   -1.5747    0.0000 H   0  0  0  0  0  0  0  0  0  0  0  0
    4.9856   -1.8210    0.0000 H   0  0  0  0  0  0  0  0  0  0  0  0
    3.3706   -2.0484    0.0000 H   0  0  0  0  0  0  0  0  0  0  0  0
    2.9721   -2.7387    0.0000 H   0  0  0  0  0  0  0  0  0  0  0  0
    5.3012    0.1172    0.0000 H   0  0  0  0  0  0  0  0  0  0  0  0
    6.0444    0.7863    0.0000 H   0  0  0  0  0  0  0  0  0  0  0  0
    5.3147   -3.2510    0.0000 H   0  0  0  0  0  0  0  0  0  0  0  0
    7.0468   -2.0110    0.0000 H   0  0  0  0  0  0  0  0  0  0  0  0
    6.5098   -3.3210    0.0000 H   0  0  0  0  0  0  0  0  0  0  0  0
    5.3790    2.8967    0.0000 H   0  0  0  0  0  0  0  0  0  0  0  0
    5.1327    2.1386    0.0000 H   0  0  0  0  0  0  0  0  0  0  0  0
    8.5234   -4.2387    0.0000 H   0  0  0  0  0  0  0  0  0  0  0  0
    8.1249   -3.5484    0.0000 H   0  0  0  0  0  0  0  0  0  0  0  0
    6.7793    2.5142    0.0000 H   0  0  0  0  0  0  0  0  0  0  0  0
    7.0256    3.2723    0.0000 H   0  0  0  0  0  0  0  0  0  0  0  0
    7.9128   -1.5110    0.0000 H   0  0  0  0  0  0  0  0  0  0  0  0
    5.8708   -3.5941    0.0000 H   0  0  0  0  0  0  0  0  0  0  0  0
    5.6438   -4.4410    0.0000 H   0  0  0  0  0  0  0  0  0  0  0  0
    6.4908   -4.6680    0.0000 H   0  0  0  0  0  0  0  0  0  0  0  0
    4.9856   -3.8210    0.0000 H   0  0  0  0  0  0  0  0  0  0  0  0
    2.1797   -3.8210    0.0000 H   0  0  0  0  0  0  0  0  0  0  0  0
    7.4808    2.3593    0.0000 H   0  0  0  0  0  0  0  0  0  0  0  0
    7.2928   -5.1310    0.0000 H   0  0  0  0  0  0  0  0  0  0  0  0
    7.9128   -5.7510    0.0000 H   0  0  0  0  0  0  0  0  0  0  0  0
    8.5328   -5.1310    0.0000 H   0  0  0  0  0  0  0  0  0  0  0  0
    5.9143    4.5440    0.0000 H   0  0  0  0  0  0  0  0  0  0  0  0
    5.6680    3.7859    0.0000 H   0  0  0  0  0  0  0  0  0  0  0  0
    8.4319    2.0503    0.0000 H   0  0  0  0  0  0  0  0  0  0  0  0
    9.6448   -2.7510    0.0000 H   0  0  0  0  0  0  0  0  0  0  0  0
    4.9856   -5.4410    0.0000 H   0  0  0  0  0  0  0  0  0  0  0  0
    2.1797   -5.4410    0.0000 H   0  0  0  0  0  0  0  0  0  0  0  0
    9.6324    1.5872    0.0000 H   0  0  0  0  0  0  0  0  0  0  0  0
    9.8788    2.3452    0.0000 H   0  0  0  0  0  0  0  0  0  0  0  0
   10.2649   -1.1310    0.0000 H   0  0  0  0  0  0  0  0  0  0  0  0
    9.6448   -0.5110    0.0000 H   0  0  0  0  0  0  0  0  0  0  0  0
    9.0248   -1.1310    0.0000 H   0  0  0  0  0  0  0  0  0  0  0  0
   10.5109   -3.2510    0.0000 H   0  0  0  0  0  0  0  0  0  0  0  0
   12.7799   -2.9410    0.0000 H   0  0  0  0  0  0  0  0  0  0  0  0
    3.0457   -6.9410    0.0000 H   0  0  0  0  0  0  0  0  0  0  0  0
   10.3817    3.7694    0.0000 H   0  0  0  0  0  0  0  0  0  0  0  0
    7.6455    3.1878    0.0000 H   0  0  0  0  0  0  0  0  0  0  0  0
   13.5075   -1.6561    0.0000 H   0  0  0  0  0  0  0  0  0  0  0  0
   12.7104   -1.6561    0.0000 H   0  0  0  0  0  0  0  0  0  0  0  0
    8.1544   -0.8099    0.0000 H   0  0  0  0  0  0  0  0  0  0  0  0
    9.5173    5.2667    0.0000 H   0  0  0  0  0  0  0  0  0  0  0  0
   12.7799   -3.9410    0.0000 H   0  0  0  0  0  0  0  0  0  0  0  0
   11.7060   -3.9410    0.0000 H   0  0  0  0  0  0  0  0  0  0  0  0
    7.3923    6.9410    0.0000 H   0  0  0  0  0  0  0  0  0  0  0  0
    8.1108    6.1430    0.0000 H   0  0  0  0  0  0  0  0  0  0  0  0
    5.6981    6.5809    0.0000 H   0  0  0  0  0  0  0  0  0  0  0  0
    5.3662    5.5596    0.0000 H   0  0  0  0  0  0  0  0  0  0  0  0
   13.6188   -4.0404    0.0000 H   0  0  0  0  0  0  0  0  0  0  0  0
   15.0174   -1.6178    0.0000 H   0  0  0  0  0  0  0  0  0  0  0  0
   15.3098   -4.3999    0.0000 H   0  0  0  0  0  0  0  0  0  0  0  0
  1 28  2  0  0  0  0
  2 29  2  0  0  0  0
  3 35  2  0  0  0  0
  4 39  2  0  0  0  0
  5 46  2  0  0  0  0
  6 52  1  0  0  0  0
  6109  1  0  0  0  0
  7 54  1  0  0  0  0
  7114  1  0  0  0  0
  8 54  2  0  0  0  0
  9 56  2  0  0  0  0
 10 24  1  0  0  0  0
 10 27  1  0  0  0  0
 10 28  1  0  0  0  0
 11 29  1  0  0  0  0
 32 11  1  1  0  0  0
 11 75  1  0  0  0  0
 30 12  1  1  0  0  0
 12 35  1  0  0  0  0
 12 77  1  0  0  0  0
 33 13  1  1  0  0  0
 13 46  1  0  0  0  0
 13 86  1  0  0  0  0
 14 39  1  0  0  0  0
 47 14  1  1  0  0  0
 14 92  1  0  0  0  0
 48 15  1  6  0  0  0
 15 56  1  0  0  0  0
 15107  1  0  0  0  0
 16 45  1  0  0  0  0
 16 58  2  0  0  0  0
 17 55  1  0  0  0  0
 17 61  1  0  0  0  0
 17110  1  0  0  0  0
 57 18  1  6  0  0  0
 18116  1  0  0  0  0
 18117  1  0  0  0  0
 19 59  1  0  0  0  0
 19 61  2  0  0  0  0
 20 58  1  0  0  0  0
 20118  1  0  0  0  0
 20119  1  0  0  0  0
 21 58  1  0  0  0  0
 21120  1  0  0  0  0
 21121  1  0  0  0  0
 22 62  1  0  0  0  0
 22 64  1  0  0  0  0
 22122  1  0  0  0  0
 23 63  1  0  0  0  0
 23 64  2  0  0  0  0
 24 25  1  0  0  0  0
 24 29  1  1  0  0  0
 24 65  1  0  0  0  0
 25 26  1  0  0  0  0
 25 66  1  0  0  0  0
 25 67  1  0  0  0  0
 26 27  1  0  0  0  0
 26 68  1  0  0  0  0
 26 69  1  0  0  0  0
 27 70  1  0  0  0  0
 27 71  1  0  0  0  0
 28 30  1  0  0  0  0
 30 31  1  0  0  0  0
 30 72  1  0  0  0  0
 31 37  1  0  0  0  0
 31 73  1  0  0  0  0
 31 74  1  0  0  0  0
 32 36  1  0  0  0  0
 32 39  1  0  0  0  0
 32 76  1  0  0  0  0
 33 34  1  0  0  0  0
 33 35  1  0  0  0  0
 33 78  1  0  0  0  0
 34 38  1  0  0  0  0
 34 41  1  6  0  0  0
 34 79  1  0  0  0  0
 36 40  1  0  0  0  0
 36 80  1  0  0  0  0
 36 81  1  0  0  0  0
 37 42  2  0  0  0  0
 37 43  1  0  0  0  0
 38 44  1  0  0  0  0
 38 82  1  0  0  0  0
 38 83  1  0  0  0  0
 40 45  1  0  0  0  0
 40 84  1  0  0  0  0
 40 85  1  0  0  0  0
 41 87  1  0  0  0  0
 41 88  1  0  0  0  0
 41 89  1  0  0  0  0
 42 49  1  0  0  0  0
 42 90  1  0  0  0  0
 43 50  2  0  0  0  0
 43 91  1  0  0  0  0
 44 93  1  0  0  0  0
 44 94  1  0  0  0  0
 44 95  1  0  0  0  0
 45 96  1  0  0  0  0
 45 97  1  0  0  0  0
 46 48  1  0  0  0  0
 47 51  1  0  0  0  0
 47 54  1  0  0  0  0
 47 98  1  0  0  0  0
 48 53  1  0  0  0  0
 48 99  1  0  0  0  0
 49 52  2  0  0  0  0
 49100  1  0  0  0  0
 50 52  1  0  0  0  0
 50101  1  0  0  0  0
 51 55  1  0  0  0  0
 51102  1  0  0  0  0
 51103  1  0  0  0  0
 53104  1  0  0  0  0
 53105  1  0  0  0  0
 53106  1  0  0  0  0
 55 59  2  0  0  0  0
 56 57  1  0  0  0  0
 57 60  1  0  0  0  0
 57108  1  0  0  0  0
 59111  1  0  0  0  0
 60 62  1  0  0  0  0
 60112  1  0  0  0  0
 60113  1  0  0  0  0
 61115  1  0  0  0  0
 62 63  2  0  0  0  0
 63123  1  0  0  0  0
 64124  1  0  0  0  0
M  END
> <PUBCHEM_COMPOUND_CID>
10169960

> <PUBCHEM_COMPOUND_CANONICALIZED>
1

> <PUBCHEM_CACTVS_COMPLEXITY>
1630

> <PUBCHEM_CACTVS_HBOND_ACCEPTOR>
13

> <PUBCHEM_CACTVS_HBOND_DONOR>
12

> <PUBCHEM_CACTVS_ROTATABLE_BOND>
24

> <PUBCHEM_CACTVS_SUBSKEYS>
AAADcfB//AAAAAAAAAAAAAAAAAAAAWLFgAAwAAAAAAAAAAAB8AAAHgAQCAAADSzBngQ/npfJkgCoAzX3fAACgC2xMqAJ2YG+eIiKbjLC2TOUcAAs1hPY2Ce82aKOIAAAAAAAAABAAAAAAAAAAAAAAAAAAA==

> <PUBCHEM_IUPAC_OPENEYE_NAME>
(2S)-2-[[(2S)-2-[[(2S)-1-[(2S)-2-[[(2S,3S)-2-[[(2S)-2-[[(2S)-2-amino-3-(1H-imidazol-5-yl)propanoyl]amino]propanoyl]amino]-3-methyl-pentanoyl]amino]-3-(4-hydroxyphenyl)propanoyl]pyrrolidine-2-carbonyl]amino]-5-guanidino-pentanoyl]amino]-3-(1H-imidazol-5-yl)propanoic acid

> <PUBCHEM_IUPAC_CAS_NAME>
(2S)-2-[[(2S)-2-[[[(2S)-1-[(2S)-2-[[(2S,3S)-2-[[(2S)-2-[[(2S)-2-amino-3-(1H-imidazol-5-yl)-1-oxopropyl]amino]-1-oxopropyl]amino]-3-methyl-1-oxopentyl]amino]-3-(4-hydroxyphenyl)-1-oxopropyl]-2-pyrrolidinyl]-oxomethyl]amino]-5-(diaminomethylideneamino)-1-oxopentyl]amino]-3-(1H-imidazol-5-yl)propanoic acid

> <PUBCHEM_IUPAC_NAME_MARKUP>
(2<I>S</I>)-2-[[(2<I>S</I>)-2-[[(2<I>S</I>)-1-[(2<I>S</I>)-2-[[(2<I>S</I>,3<I>S</I>)-2-[[(2<I>S</I>)-2-[[(2<I>S</I>)-2-amino-3-(1<I>H</I>-imidazol-5-yl)propanoyl]amino]propanoyl]amino]-3-methylpentanoyl]amino]-3-(4-hydroxyphenyl)propanoyl]pyrrolidine-2-carbonyl]amino]-5-(diaminomethylideneamino)pentanoyl]amino]-3-(1<I>H</I>-imidazol-5-yl)propanoic acid

> <PUBCHEM_IUPAC_NAME>
(2S)-2-[[(2S)-2-[[(2S)-1-[(2S)-2-[[(2S,3S)-2-[[(2S)-2-[[(2S)-2-amino-3-(1H-imidazol-5-yl)propanoyl]amino]propanoyl]amino]-3-methylpentanoyl]amino]-3-(4-hydroxyphenyl)propanoyl]pyrrolidine-2-carbonyl]amino]-5-(diaminomethylideneamino)pentanoyl]amino]-3-(1H-imidazol-5-yl)propanoic acid

> <PUBCHEM_IUPAC_SYSTEMATIC_NAME>
(2S)-2-[[(2S)-2-[[(2S)-1-[(2S)-2-[[(2S,3S)-2-[[(2S)-2-[[(2S)-2-azanyl-3-(1H-imidazol-5-yl)propanoyl]amino]propanoyl]amino]-3-methyl-pentanoyl]amino]-3-(4-hydroxyphenyl)propanoyl]pyrrolidin-2-yl]carbonylamino]-5-[bis(azanyl)methylideneamino]pentanoyl]amino]-3-(1H-imidazol-5-yl)propanoic acid

> <PUBCHEM_IUPAC_TRADITIONAL_NAME>
(2S)-2-[[(2S)-2-[[(2S)-1-[(2S)-2-[[(2S,3S)-2-[[(2S)-2-[[(2S)-2-amino-3-(1H-imidazol-5-yl)propanoyl]amino]propanoyl]amino]-3-methyl-pentanoyl]amino]-3-(4-hydroxyphenyl)propanoyl]prolyl]amino]-5-guanidino-pentanoyl]amino]-3-(1H-imidazol-5-yl)propionic acid

> <PUBCHEM_IUPAC_INCHI>
InChI=1S/C41H60N14O9/c1-4-22(2)33(54-34(57)23(3)50-35(58)28(42)16-25-18-45-20-48-25)38(61)52-30(15-24-9-11-27(56)12-10-24)39(62)55-14-6-8-32(55)37(60)51-29(7-5-13-47-41(43)44)36(59)53-31(40(63)64)17-26-19-46-21-49-26/h9-12,18-23,28-33,56H,4-8,13-17,42H2,1-3H3,(H,45,48)(H,46,49)(H,50,58)(H,51,60)(H,52,61)(H,53,59)(H,54,57)(H,63,64)(H4,43,44,47)/t22-,23-,28-,29-,30-,31-,32-,33-/m0/s1

> <PUBCHEM_IUPAC_INCHIKEY>
XAEMVBIKWOMFAH-JIQJDAEYSA-N

> <PUBCHEM_XLOGP3_AA>
-3.3

> <PUBCHEM_EXACT_MASS>
892.46676955

> <PUBCHEM_MOLECULAR_FORMULA>
C41H60N14O9

> <PUBCHEM_MOLECULAR_WEIGHT>
893.0

> <PUBCHEM_OPENEYE_CAN_SMILES>
CCC(C)C(C(=O)NC(CC1=CC=C(C=C1)O)C(=O)N2CCCC2C(=O)NC(CCCN=C(N)N)C(=O)NC(CC3=CN=CN3)C(=O)O)NC(=O)C(C)NC(=O)C(CC4=CN=CN4)N

> <PUBCHEM_OPENEYE_ISO_SMILES>
CC[C@H](C)[C@@H](C(=O)N[C@@H](CC1=CC=C(C=C1)O)C(=O)N2CCC[C@H]2C(=O)N[C@@H](CCCN=C(N)N)C(=O)N[C@@H](CC3=CN=CN3)C(=O)O)NC(=O)[C@H](C)NC(=O)[C@H](CC4=CN=CN4)N

> <PUBCHEM_CACTVS_TPSA>
371

> <PUBCHEM_MONOISOTOPIC_WEIGHT>
892.46676955

> <PUBCHEM_TOTAL_CHARGE>
0

> <PUBCHEM_HEAVY_ATOM_COUNT>
64

> <PUBCHEM_ATOM_DEF_STEREO_COUNT>
8

> <PUBCHEM_ATOM_UDEF_STEREO_COUNT>
0

> <PUBCHEM_BOND_DEF_STEREO_COUNT>
0

> <PUBCHEM_BOND_UDEF_STEREO_COUNT>
0

> <PUBCHEM_ISOTOPIC_ATOM_COUNT>
0

> <PUBCHEM_COMPONENT_COUNT>
1

> <PUBCHEM_CACTVS_TAUTO_COUNT>
-1

> <PUBCHEM_COORDINATE_TYPE>
1
5
255

> <PUBCHEM_BONDANNOTATIONS>
32  11  5
30  12  5
33  13  5
47  14  5
48  15  6
17  55  8
17  61  8
57  18  6
19  59  8
19  61  8
22  62  8
22  64  8
23  63  8
23  64  8
24  29  5
34  41  6
37  42  8
37  43  8
42  49  8
43  50  8
49  52  8
50  52  8
55  59  8
62  63  8

$$$$
