72545011
  -OEChem-09292322342D

 56 59  0     0  0  0  0  0  0999 V2000
   10.5695    6.2396    0.0000 F   0  0  0  0  0  0  0  0  0  0  0  0
    2.8660   -4.2396    0.0000 O   0  0  0  0  0  0  0  0  0  0  0  0
    8.1737    5.1170    0.0000 O   0  0  0  0  0  0  0  0  0  0  0  0
    4.5981   -1.2396    0.0000 N   0  0  0  0  0  0  0  0  0  0  0  0
    4.5981   -3.2396    0.0000 N   0  0  0  0  0  0  0  0  0  0  0  0
    6.5468    1.4628    0.0000 N   0  0  0  0  0  0  0  0  0  0  0  0
    6.3776   -0.1463    0.0000 N   0  0  0  0  0  0  0  0  0  0  0  0
    7.0468    0.5968    0.0000 N   0  0  0  0  0  0  0  0  0  0  0  0
    5.4641   -1.7396    0.0000 C   0  0  0  0  0  0  0  0  0  0  0  0
    3.7320   -1.7396    0.0000 C   0  0  0  0  0  0  0  0  0  0  0  0
    5.4641   -2.7396    0.0000 C   0  0  0  0  0  0  0  0  0  0  0  0
    3.7320   -2.7396    0.0000 C   0  0  0  0  0  0  0  0  0  0  0  0
    4.5981   -0.2396    0.0000 C   0  0  0  0  0  0  0  0  0  0  0  0
    4.5981   -4.2396    0.0000 C   0  0  0  0  0  0  0  0  0  0  0  0
    5.4641    0.2604    0.0000 C   0  0  0  0  0  0  0  0  0  0  0  0
    3.7320   -4.7396    0.0000 C   0  0  0  0  0  0  0  0  0  0  0  0
    5.4641   -4.7396    0.0000 C   0  0  0  0  0  0  0  0  0  0  0  0
    5.5686    1.2549    0.0000 C   0  0  0  0  0  0  0  0  0  0  0  0
    3.7320   -5.7396    0.0000 C   0  0  0  0  0  0  0  0  0  0  0  0
    5.4641   -5.7396    0.0000 C   0  0  0  0  0  0  0  0  0  0  0  0
    4.5981   -6.2396    0.0000 C   0  0  0  0  0  0  0  0  0  0  0  0
    6.9535    2.3764    0.0000 C   0  0  0  0  0  0  0  0  0  0  0  0
    2.0000   -4.7396    0.0000 C   0  0  0  0  0  0  0  0  0  0  0  0
    7.9480    2.4809    0.0000 C   0  0  0  0  0  0  0  0  0  0  0  0
    6.3657    3.1854    0.0000 C   0  0  0  0  0  0  0  0  0  0  0  0
    8.3548    3.3944    0.0000 C   0  0  0  0  0  0  0  0  0  0  0  0
    6.7725    4.0989    0.0000 C   0  0  0  0  0  0  0  0  0  0  0  0
    7.7670    4.2035    0.0000 C   0  0  0  0  0  0  0  0  0  0  0  0
    9.1682    5.2215    0.0000 C   0  0  0  0  0  0  0  0  0  0  0  0
    9.5750    6.1351    0.0000 C   0  0  0  0  0  0  0  0  0  0  0  0
    6.0747   -1.8473    0.0000 H   0  0  0  0  0  0  0  0  0  0  0  0
    5.6762   -1.1570    0.0000 H   0  0  0  0  0  0  0  0  0  0  0  0
    3.5200   -1.1570    0.0000 H   0  0  0  0  0  0  0  0  0  0  0  0
    3.1215   -1.8473    0.0000 H   0  0  0  0  0  0  0  0  0  0  0  0
    5.6762   -3.3222    0.0000 H   0  0  0  0  0  0  0  0  0  0  0  0
    6.0747   -2.6319    0.0000 H   0  0  0  0  0  0  0  0  0  0  0  0
    3.1215   -2.6319    0.0000 H   0  0  0  0  0  0  0  0  0  0  0  0
    3.5200   -3.3222    0.0000 H   0  0  0  0  0  0  0  0  0  0  0  0
    4.3860    0.3430    0.0000 H   0  0  0  0  0  0  0  0  0  0  0  0
    3.9875   -0.3473    0.0000 H   0  0  0  0  0  0  0  0  0  0  0  0
    6.0010   -4.4296    0.0000 H   0  0  0  0  0  0  0  0  0  0  0  0
    5.1079    1.6698    0.0000 H   0  0  0  0  0  0  0  0  0  0  0  0
    3.1951   -6.0496    0.0000 H   0  0  0  0  0  0  0  0  0  0  0  0
    6.0010   -6.0496    0.0000 H   0  0  0  0  0  0  0  0  0  0  0  0
    4.5981   -6.8596    0.0000 H   0  0  0  0  0  0  0  0  0  0  0  0
    8.3125    1.9793    0.0000 H   0  0  0  0  0  0  0  0  0  0  0  0
    5.7491    3.1206    0.0000 H   0  0  0  0  0  0  0  0  0  0  0  0
    1.6900   -4.2027    0.0000 H   0  0  0  0  0  0  0  0  0  0  0  0
    1.4631   -5.0496    0.0000 H   0  0  0  0  0  0  0  0  0  0  0  0
    2.3100   -5.2765    0.0000 H   0  0  0  0  0  0  0  0  0  0  0  0
    8.9714    3.4592    0.0000 H   0  0  0  0  0  0  0  0  0  0  0  0
    6.4080    4.6005    0.0000 H   0  0  0  0  0  0  0  0  0  0  0  0
    9.1250    4.6030    0.0000 H   0  0  0  0  0  0  0  0  0  0  0  0
    9.7698    5.0715    0.0000 H   0  0  0  0  0  0  0  0  0  0  0  0
    9.6182    6.7536    0.0000 H   0  0  0  0  0  0  0  0  0  0  0  0
    8.9734    6.2851    0.0000 H   0  0  0  0  0  0  0  0  0  0  0  0
  1 30  1  0  0  0  0
  2 16  1  0  0  0  0
  2 23  1  0  0  0  0
  3 28  1  0  0  0  0
  3 29  1  0  0  0  0
  4  9  1  0  0  0  0
  4 10  1  0  0  0  0
  4 13  1  0  0  0  0
  5 11  1  0  0  0  0
  5 12  1  0  0  0  0
  5 14  1  0  0  0  0
  6  8  1  0  0  0  0
  6 18  1  0  0  0  0
  6 22  1  0  0  0  0
  7  8  2  0  0  0  0
  7 15  1  0  0  0  0
  9 11  1  0  0  0  0
  9 31  1  0  0  0  0
  9 32  1  0  0  0  0
 10 12  1  0  0  0  0
 10 33  1  0  0  0  0
 10 34  1  0  0  0  0
 11 35  1  0  0  0  0
 11 36  1  0  0  0  0
 12 37  1  0  0  0  0
 12 38  1  0  0  0  0
 13 15  1  0  0  0  0
 13 39  1  0  0  0  0
 13 40  1  0  0  0  0
 14 16  1  0  0  0  0
 14 17  2  0  0  0  0
 15 18  2  0  0  0  0
 16 19  2  0  0  0  0
 17 20  1  0  0  0  0
 17 41  1  0  0  0  0
 18 42  1  0  0  0  0
 19 21  1  0  0  0  0
 19 43  1  0  0  0  0
 20 21  2  0  0  0  0
 20 44  1  0  0  0  0
 21 45  1  0  0  0  0
 22 24  2  0  0  0  0
 22 25  1  0  0  0  0
 23 48  1  0  0  0  0
 23 49  1  0  0  0  0
 23 50  1  0  0  0  0
 24 26  1  0  0  0  0
 24 46  1  0  0  0  0
 25 27  2  0  0  0  0
 25 47  1  0  0  0  0
 26 28  2  0  0  0  0
 26 51  1  0  0  0  0
 27 28  1  0  0  0  0
 27 52  1  0  0  0  0
 29 30  1  0  0  0  0
 29 53  1  0  0  0  0
 29 54  1  0  0  0  0
 30 55  1  0  0  0  0
 30 56  1  0  0  0  0
M  END
> <PUBCHEM_COMPOUND_CID>
72545011

> <PUBCHEM_COMPOUND_CANONICALIZED>
1

> <PUBCHEM_CACTVS_COMPLEXITY>
500

> <PUBCHEM_CACTVS_HBOND_ACCEPTOR>
7

> <PUBCHEM_CACTVS_HBOND_DONOR>
0

> <PUBCHEM_CACTVS_ROTATABLE_BOND>
8

> <PUBCHEM_CACTVS_SUBSKEYS>
AAADceB7sQAAAAAAAAAAAAAAAAAAAWAAAAA8YIAAAAAAAAAB0AAAHwAIAAAACAzhlgY+xpMIBACiATRnRACCDCQxsgAYmAA/fIgOZmLE8ZuXOCjkwBHY6AewQAAAAEAAAAAAEAAAgAAAAAAgAAAAAAAAAA==

> <PUBCHEM_IUPAC_OPENEYE_NAME>
1-[[1-[4-(2-fluoroethoxy)phenyl]triazol-4-yl]methyl]-4-(2-methoxyphenyl)piperazine

> <PUBCHEM_IUPAC_CAS_NAME>
1-[[1-[4-(2-fluoroethoxy)phenyl]-4-triazolyl]methyl]-4-(2-methoxyphenyl)piperazine

> <PUBCHEM_IUPAC_NAME_MARKUP>
1-[[1-[4-(2-fluoroethoxy)phenyl]triazol-4-yl]methyl]-4-(2-methoxyphenyl)piperazine

> <PUBCHEM_IUPAC_NAME>
1-[[1-[4-(2-fluoroethoxy)phenyl]triazol-4-yl]methyl]-4-(2-methoxyphenyl)piperazine

> <PUBCHEM_IUPAC_SYSTEMATIC_NAME>
1-[[1-[4-(2-fluoranylethoxy)phenyl]-1,2,3-triazol-4-yl]methyl]-4-(2-methoxyphenyl)piperazine

> <PUBCHEM_IUPAC_TRADITIONAL_NAME>
1-[[1-[4-(2-fluoroethoxy)phenyl]triazol-4-yl]methyl]-4-(2-methoxyphenyl)piperazine

> <PUBCHEM_IUPAC_INCHI>
InChI=1S/C22H26FN5O2/c1-29-22-5-3-2-4-21(22)27-13-11-26(12-14-27)16-18-17-28(25-24-18)19-6-8-20(9-7-19)30-15-10-23/h2-9,17H,10-16H2,1H3

> <PUBCHEM_IUPAC_INCHIKEY>
LHYAIPJNIYZFAE-UHFFFAOYSA-N

> <PUBCHEM_XLOGP3_AA>
3.1

> <PUBCHEM_EXACT_MASS>
411.20705325

> <PUBCHEM_MOLECULAR_FORMULA>
C22H26FN5O2

> <PUBCHEM_MOLECULAR_WEIGHT>
411.5

> <PUBCHEM_OPENEYE_CAN_SMILES>
COC1=CC=CC=C1N2CCN(CC2)CC3=CN(N=N3)C4=CC=C(C=C4)OCCF

> <PUBCHEM_OPENEYE_ISO_SMILES>
COC1=CC=CC=C1N2CCN(CC2)CC3=CN(N=N3)C4=CC=C(C=C4)OCCF

> <PUBCHEM_CACTVS_TPSA>
55.6

> <PUBCHEM_MONOISOTOPIC_WEIGHT>
411.20705325

> <PUBCHEM_TOTAL_CHARGE>
0

> <PUBCHEM_HEAVY_ATOM_COUNT>
30

> <PUBCHEM_ATOM_DEF_STEREO_COUNT>
0

> <PUBCHEM_ATOM_UDEF_STEREO_COUNT>
0

> <PUBCHEM_BOND_DEF_STEREO_COUNT>
0

> <PUBCHEM_BOND_UDEF_STEREO_COUNT>
0

> <PUBCHEM_ISOTOPIC_ATOM_COUNT>
0

> <PUBCHEM_COMPONENT_COUNT>
1

> <PUBCHEM_CACTVS_TAUTO_COUNT>
-1

> <PUBCHEM_COORDINATE_TYPE>
1
5
255

> <PUBCHEM_BONDANNOTATIONS>
14  16  8
14  17  8
15  18  8
16  19  8
17  20  8
19  21  8
20  21  8
22  24  8
22  25  8
24  26  8
25  27  8
26  28  8
27  28  8
6  18  8
6  8  8
7  15  8
7  8  8

$$$$
