11315254
  -OEChem-09292322342D

 47 50  0     0  0  0  0  0  0999 V2000
    2.8660   -2.4470    0.0000 Cl  0  0  0  0  0  0  0  0  0  0  0  0
   14.0561    1.0530    0.0000 S   0  0  0  0  0  0  0  0  0  0  0  0
    8.9282    2.0530    0.0000 O   0  0  0  0  0  0  0  0  0  0  0  0
    6.3301    1.5530    0.0000 N   0  0  0  0  0  0  0  0  0  0  0  0
    4.5981    0.5530    0.0000 N   0  0  0  0  0  0  0  0  0  0  0  0
   12.4725    1.8577    0.0000 N   0  0  0  0  0  0  0  0  0  0  0  0
   12.4725    0.2482    0.0000 N   0  0  0  0  0  0  0  0  0  0  0  0
    5.4641    2.0530    0.0000 C   0  0  0  0  0  0  0  0  0  0  0  0
    6.3301    0.5530    0.0000 C   0  0  0  0  0  0  0  0  0  0  0  0
    4.5981    1.5530    0.0000 C   0  0  0  0  0  0  0  0  0  0  0  0
    5.4641    0.0530    0.0000 C   0  0  0  0  0  0  0  0  0  0  0  0
    7.1962    2.0530    0.0000 C   0  0  0  0  0  0  0  0  0  0  0  0
    3.7320    0.0530    0.0000 C   0  0  0  0  0  0  0  0  0  0  0  0
    8.0622    1.5530    0.0000 C   0  0  0  0  0  0  0  0  0  0  0  0
    3.7320   -0.9470    0.0000 C   0  0  0  0  0  0  0  0  0  0  0  0
    2.8660    0.5530    0.0000 C   0  0  0  0  0  0  0  0  0  0  0  0
    9.7942    1.5530    0.0000 C   0  0  0  0  0  0  0  0  0  0  0  0
    2.8660   -1.4470    0.0000 C   0  0  0  0  0  0  0  0  0  0  0  0
    2.0000    0.0530    0.0000 C   0  0  0  0  0  0  0  0  0  0  0  0
   11.5263    1.5530    0.0000 C   0  0  0  0  0  0  0  0  0  0  0  0
   10.6603    2.0530    0.0000 C   0  0  0  0  0  0  0  0  0  0  0  0
    2.0000   -0.9470    0.0000 C   0  0  0  0  0  0  0  0  0  0  0  0
   11.5263    0.5530    0.0000 C   0  0  0  0  0  0  0  0  0  0  0  0
    9.7942    0.5530    0.0000 C   0  0  0  0  0  0  0  0  0  0  0  0
   10.6603    0.0530    0.0000 C   0  0  0  0  0  0  0  0  0  0  0  0
   13.0561    1.0530    0.0000 C   0  0  0  0  0  0  0  0  0  0  0  0
    5.8626    2.5279    0.0000 H   0  0  0  0  0  0  0  0  0  0  0  0
    5.0656    2.5279    0.0000 H   0  0  0  0  0  0  0  0  0  0  0  0
    6.5422   -0.0296    0.0000 H   0  0  0  0  0  0  0  0  0  0  0  0
    6.9407    0.6606    0.0000 H   0  0  0  0  0  0  0  0  0  0  0  0
    4.3860    2.1356    0.0000 H   0  0  0  0  0  0  0  0  0  0  0  0
    3.9875    1.4453    0.0000 H   0  0  0  0  0  0  0  0  0  0  0  0
    5.0656   -0.4220    0.0000 H   0  0  0  0  0  0  0  0  0  0  0  0
    5.8626   -0.4220    0.0000 H   0  0  0  0  0  0  0  0  0  0  0  0
    7.5947    2.5279    0.0000 H   0  0  0  0  0  0  0  0  0  0  0  0
    6.7976    2.5279    0.0000 H   0  0  0  0  0  0  0  0  0  0  0  0
    7.6636    1.0780    0.0000 H   0  0  0  0  0  0  0  0  0  0  0  0
    8.4607    1.0780    0.0000 H   0  0  0  0  0  0  0  0  0  0  0  0
    4.2690   -1.2570    0.0000 H   0  0  0  0  0  0  0  0  0  0  0  0
    2.8660    1.1730    0.0000 H   0  0  0  0  0  0  0  0  0  0  0  0
    1.4631    0.3630    0.0000 H   0  0  0  0  0  0  0  0  0  0  0  0
   10.6603    2.6730    0.0000 H   0  0  0  0  0  0  0  0  0  0  0  0
    1.4631   -1.2570    0.0000 H   0  0  0  0  0  0  0  0  0  0  0  0
    9.2573    0.2430    0.0000 H   0  0  0  0  0  0  0  0  0  0  0  0
   10.6603   -0.5670    0.0000 H   0  0  0  0  0  0  0  0  0  0  0  0
   12.6651    2.4470    0.0000 H   0  0  0  0  0  0  0  0  0  0  0  0
   12.6651   -0.3411    0.0000 H   0  0  0  0  0  0  0  0  0  0  0  0
  1 18  1  0  0  0  0
  2 26  2  0  0  0  0
  3 14  1  0  0  0  0
  3 17  1  0  0  0  0
  4  8  1  0  0  0  0
  4  9  1  0  0  0  0
  4 12  1  0  0  0  0
  5 10  1  0  0  0  0
  5 11  1  0  0  0  0
  5 13  1  0  0  0  0
  6 20  1  0  0  0  0
  6 26  1  0  0  0  0
  6 46  1  0  0  0  0
  7 23  1  0  0  0  0
  7 26  1  0  0  0  0
  7 47  1  0  0  0  0
  8 10  1  0  0  0  0
  8 27  1  0  0  0  0
  8 28  1  0  0  0  0
  9 11  1  0  0  0  0
  9 29  1  0  0  0  0
  9 30  1  0  0  0  0
 10 31  1  0  0  0  0
 10 32  1  0  0  0  0
 11 33  1  0  0  0  0
 11 34  1  0  0  0  0
 12 14  1  0  0  0  0
 12 35  1  0  0  0  0
 12 36  1  0  0  0  0
 13 15  2  0  0  0  0
 13 16  1  0  0  0  0
 14 37  1  0  0  0  0
 14 38  1  0  0  0  0
 15 18  1  0  0  0  0
 15 39  1  0  0  0  0
 16 19  2  0  0  0  0
 16 40  1  0  0  0  0
 17 21  2  0  0  0  0
 17 24  1  0  0  0  0
 18 22  2  0  0  0  0
 19 22  1  0  0  0  0
 19 41  1  0  0  0  0
 20 21  1  0  0  0  0
 20 23  2  0  0  0  0
 21 42  1  0  0  0  0
 22 43  1  0  0  0  0
 23 25  1  0  0  0  0
 24 25  2  0  0  0  0
 24 44  1  0  0  0  0
 25 45  1  0  0  0  0
M  END
> <PUBCHEM_COMPOUND_CID>
11315254

> <PUBCHEM_COMPOUND_CANONICALIZED>
1

> <PUBCHEM_CACTVS_COMPLEXITY>
488

> <PUBCHEM_CACTVS_HBOND_ACCEPTOR>
4

> <PUBCHEM_CACTVS_HBOND_DONOR>
2

> <PUBCHEM_CACTVS_ROTATABLE_BOND>
5

> <PUBCHEM_CACTVS_SUBSKEYS>
AAADceB7oABEAAAAAAAAAAAAAAAAAWAAAAA8YIAAAAAAAFgBQAAAHgYQAAAACA7hkCYxxoPABACEACRCQACCCAAhJwkIiAAOfoiOZiLFs5uXOCju0BvY6CewUAMAAEAAAgIAACAAgAAEBAAAQAAAAAAAAA==

> <PUBCHEM_IUPAC_OPENEYE_NAME>
5-[2-[4-(3-chlorophenyl)piperazin-1-yl]ethoxy]-1,3-dihydrobenzimidazole-2-thione

> <PUBCHEM_IUPAC_CAS_NAME>
5-[2-[4-(3-chlorophenyl)-1-piperazinyl]ethoxy]-1,3-dihydrobenzimidazole-2-thione

> <PUBCHEM_IUPAC_NAME_MARKUP>
5-[2-[4-(3-chlorophenyl)piperazin-1-yl]ethoxy]-1,3-dihydrobenzimidazole-2-thione

> <PUBCHEM_IUPAC_NAME>
5-[2-[4-(3-chlorophenyl)piperazin-1-yl]ethoxy]-1,3-dihydrobenzimidazole-2-thione

> <PUBCHEM_IUPAC_SYSTEMATIC_NAME>
5-[2-[4-(3-chlorophenyl)piperazin-1-yl]ethoxy]-1,3-dihydrobenzimidazole-2-thione

> <PUBCHEM_IUPAC_TRADITIONAL_NAME>
5-[2-[4-(3-chlorophenyl)piperazino]ethoxy]-1,3-dihydrobenzimidazole-2-thione

> <PUBCHEM_IUPAC_INCHI>
InChI=1S/C19H21ClN4OS/c20-14-2-1-3-15(12-14)24-8-6-23(7-9-24)10-11-25-16-4-5-17-18(13-16)22-19(26)21-17/h1-5,12-13H,6-11H2,(H2,21,22,26)

> <PUBCHEM_IUPAC_INCHIKEY>
UJVQLQPURJLGHG-UHFFFAOYSA-N

> <PUBCHEM_XLOGP3_AA>
3.4

> <PUBCHEM_EXACT_MASS>
388.1124602

> <PUBCHEM_MOLECULAR_FORMULA>
C19H21ClN4OS

> <PUBCHEM_MOLECULAR_WEIGHT>
388.9

> <PUBCHEM_OPENEYE_CAN_SMILES>
C1CN(CCN1CCOC2=CC3=C(C=C2)NC(=S)N3)C4=CC(=CC=C4)Cl

> <PUBCHEM_OPENEYE_ISO_SMILES>
C1CN(CCN1CCOC2=CC3=C(C=C2)NC(=S)N3)C4=CC(=CC=C4)Cl

> <PUBCHEM_CACTVS_TPSA>
71.9

> <PUBCHEM_MONOISOTOPIC_WEIGHT>
388.1124602

> <PUBCHEM_TOTAL_CHARGE>
0

> <PUBCHEM_HEAVY_ATOM_COUNT>
26

> <PUBCHEM_ATOM_DEF_STEREO_COUNT>
0

> <PUBCHEM_ATOM_UDEF_STEREO_COUNT>
0

> <PUBCHEM_BOND_DEF_STEREO_COUNT>
0

> <PUBCHEM_BOND_UDEF_STEREO_COUNT>
0

> <PUBCHEM_ISOTOPIC_ATOM_COUNT>
0

> <PUBCHEM_COMPONENT_COUNT>
1

> <PUBCHEM_CACTVS_TAUTO_COUNT>
-1

> <PUBCHEM_COORDINATE_TYPE>
1
5
255

> <PUBCHEM_BONDANNOTATIONS>
13  15  8
13  16  8
15  18  8
16  19  8
17  21  8
17  24  8
18  22  8
19  22  8
20  21  8
20  23  8
23  25  8
24  25  8
6  20  8
6  26  8
7  23  8
7  26  8

$$$$
