10427977
  -OEChem-09292322182D

 44 47  0     0  0  0  0  0  0999 V2000
   11.8385    3.1404    0.0000 Cl  0  0  0  0  0  0  0  0  0  0  0  0
    5.9674    1.9030    0.0000 N   0  0  0  0  0  0  0  0  0  0  0  0
    7.9244    2.3155    0.0000 N   0  0  0  0  0  0  0  0  0  0  0  0
    3.7320   -0.5584    0.0000 N   0  0  0  0  0  0  0  0  0  0  0  0
    4.6783   -0.8632    0.0000 N   0  0  0  0  0  0  0  0  0  0  0  0
    6.6353    1.1587    0.0000 C   0  0  0  0  0  0  0  0  0  0  0  0
    6.2781    2.8536    0.0000 C   0  0  0  0  0  0  0  0  0  0  0  0
    7.6138    1.3650    0.0000 C   0  0  0  0  0  0  0  0  0  0  0  0
    7.2566    3.0598    0.0000 C   0  0  0  0  0  0  0  0  0  0  0  0
    4.9889    1.6968    0.0000 C   0  0  0  0  0  0  0  0  0  0  0  0
    4.6783    0.7463    0.0000 C   0  0  0  0  0  0  0  0  0  0  0  0
    8.9030    2.5217    0.0000 C   0  0  0  0  0  0  0  0  0  0  0  0
    3.7320    0.4416    0.0000 C   0  0  0  0  0  0  0  0  0  0  0  0
    5.2619   -0.0584    0.0000 C   0  0  0  0  0  0  0  0  0  0  0  0
    9.5708    1.7774    0.0000 C   0  0  0  0  0  0  0  0  0  0  0  0
    9.2136    3.4722    0.0000 C   0  0  0  0  0  0  0  0  0  0  0  0
    2.8660    0.9416    0.0000 C   0  0  0  0  0  0  0  0  0  0  0  0
    2.8660   -1.0584    0.0000 C   0  0  0  0  0  0  0  0  0  0  0  0
   10.5493    1.9836    0.0000 C   0  0  0  0  0  0  0  0  0  0  0  0
   10.1921    3.6784    0.0000 C   0  0  0  0  0  0  0  0  0  0  0  0
    2.0000    0.4416    0.0000 C   0  0  0  0  0  0  0  0  0  0  0  0
    2.0000   -0.5584    0.0000 C   0  0  0  0  0  0  0  0  0  0  0  0
   10.8600    2.9341    0.0000 C   0  0  0  0  0  0  0  0  0  0  0  0
    2.8660   -2.0584    0.0000 C   0  0  0  0  0  0  0  0  0  0  0  0
    2.8660   -3.0584    0.0000 C   0  0  0  0  0  0  0  0  0  0  0  0
    6.1089    0.8311    0.0000 H   0  0  0  0  0  0  0  0  0  0  0  0
    6.8665    0.5835    0.0000 H   0  0  0  0  0  0  0  0  0  0  0  0
    6.2575    3.4732    0.0000 H   0  0  0  0  0  0  0  0  0  0  0  0
    5.6643    2.9409    0.0000 H   0  0  0  0  0  0  0  0  0  0  0  0
    7.6344    0.7453    0.0000 H   0  0  0  0  0  0  0  0  0  0  0  0
    8.2276    1.2776    0.0000 H   0  0  0  0  0  0  0  0  0  0  0  0
    7.7830    3.3874    0.0000 H   0  0  0  0  0  0  0  0  0  0  0  0
    7.0254    3.6350    0.0000 H   0  0  0  0  0  0  0  0  0  0  0  0
    4.9684    2.3165    0.0000 H   0  0  0  0  0  0  0  0  0  0  0  0
    4.3751    1.7842    0.0000 H   0  0  0  0  0  0  0  0  0  0  0  0
    5.8819   -0.0584    0.0000 H   0  0  0  0  0  0  0  0  0  0  0  0
    9.3782    1.1881    0.0000 H   0  0  0  0  0  0  0  0  0  0  0  0
    8.7996    3.9337    0.0000 H   0  0  0  0  0  0  0  0  0  0  0  0
    2.8660    1.5616    0.0000 H   0  0  0  0  0  0  0  0  0  0  0  0
   10.9634    1.5221    0.0000 H   0  0  0  0  0  0  0  0  0  0  0  0
   10.3847    4.2678    0.0000 H   0  0  0  0  0  0  0  0  0  0  0  0
    1.4631    0.7516    0.0000 H   0  0  0  0  0  0  0  0  0  0  0  0
    1.4631   -0.8684    0.0000 H   0  0  0  0  0  0  0  0  0  0  0  0
    2.8660   -3.6784    0.0000 H   0  0  0  0  0  0  0  0  0  0  0  0
  1 23  1  0  0  0  0
  2  6  1  0  0  0  0
  2  7  1  0  0  0  0
  2 10  1  0  0  0  0
  3  8  1  0  0  0  0
  3  9  1  0  0  0  0
  3 12  1  0  0  0  0
  4  5  1  0  0  0  0
  4 13  1  0  0  0  0
  4 18  1  0  0  0  0
  5 14  2  0  0  0  0
  6  8  1  0  0  0  0
  6 26  1  0  0  0  0
  6 27  1  0  0  0  0
  7  9  1  0  0  0  0
  7 28  1  0  0  0  0
  7 29  1  0  0  0  0
  8 30  1  0  0  0  0
  8 31  1  0  0  0  0
  9 32  1  0  0  0  0
  9 33  1  0  0  0  0
 10 11  1  0  0  0  0
 10 34  1  0  0  0  0
 10 35  1  0  0  0  0
 11 13  2  0  0  0  0
 11 14  1  0  0  0  0
 12 15  2  0  0  0  0
 12 16  1  0  0  0  0
 13 17  1  0  0  0  0
 14 36  1  0  0  0  0
 15 19  1  0  0  0  0
 15 37  1  0  0  0  0
 16 20  2  0  0  0  0
 16 38  1  0  0  0  0
 17 21  2  0  0  0  0
 17 39  1  0  0  0  0
 18 22  2  0  0  0  0
 18 24  1  0  0  0  0
 19 23  2  0  0  0  0
 19 40  1  0  0  0  0
 20 23  1  0  0  0  0
 20 41  1  0  0  0  0
 21 22  1  0  0  0  0
 21 42  1  0  0  0  0
 22 43  1  0  0  0  0
 24 25  3  0  0  0  0
 25 44  1  0  0  0  0
M  END
> <PUBCHEM_COMPOUND_CID>
10427977

> <PUBCHEM_COMPOUND_CANONICALIZED>
1

> <PUBCHEM_CACTVS_COMPLEXITY>
487

> <PUBCHEM_CACTVS_HBOND_ACCEPTOR>
3

> <PUBCHEM_CACTVS_HBOND_DONOR>
0

> <PUBCHEM_CACTVS_ROTATABLE_BOND>
4

> <PUBCHEM_CACTVS_SUBSKEYS>
AAADceB7gAAEAAAAAAAAAAAAAAAAAWAAAAA8WIAAAAAAAFgB8AAAHAIIAAAADArBHiQ8wLMIEADiGzRnRAiShCAhhyAYmCA4ZpgIYOLB09GUpAhgiADIyAcQgMAMAABAAAAAAAAAAIAAAAAAAAAAAAAAAA==

> <PUBCHEM_IUPAC_OPENEYE_NAME>
3-[[4-(4-chlorophenyl)piperazin-1-yl]methyl]-7-ethynyl-pyrazolo[1,5-a]pyridine

> <PUBCHEM_IUPAC_CAS_NAME>
3-[[4-(4-chlorophenyl)-1-piperazinyl]methyl]-7-ethynylpyrazolo[1,5-a]pyridine

> <PUBCHEM_IUPAC_NAME_MARKUP>
3-[[4-(4-chlorophenyl)piperazin-1-yl]methyl]-7-ethynylpyrazolo[1,5-a]pyridine

> <PUBCHEM_IUPAC_NAME>
3-[[4-(4-chlorophenyl)piperazin-1-yl]methyl]-7-ethynylpyrazolo[1,5-a]pyridine

> <PUBCHEM_IUPAC_SYSTEMATIC_NAME>
3-[[4-(4-chlorophenyl)piperazin-1-yl]methyl]-7-ethynyl-pyrazolo[1,5-a]pyridine

> <PUBCHEM_IUPAC_TRADITIONAL_NAME>
3-[[4-(4-chlorophenyl)piperazino]methyl]-7-ethynyl-pyrazolo[1,5-a]pyridine

> <PUBCHEM_IUPAC_INCHI>
InChI=1S/C20H19ClN4/c1-2-18-4-3-5-20-16(14-22-25(18)20)15-23-10-12-24(13-11-23)19-8-6-17(21)7-9-19/h1,3-9,14H,10-13,15H2

> <PUBCHEM_IUPAC_INCHIKEY>
NVYMBZSBOQRSFH-UHFFFAOYSA-N

> <PUBCHEM_XLOGP3_AA>
3.4

> <PUBCHEM_EXACT_MASS>
350.1298243

> <PUBCHEM_MOLECULAR_FORMULA>
C20H19ClN4

> <PUBCHEM_MOLECULAR_WEIGHT>
350.8

> <PUBCHEM_OPENEYE_CAN_SMILES>
C#CC1=CC=CC2=C(C=NN21)CN3CCN(CC3)C4=CC=C(C=C4)Cl

> <PUBCHEM_OPENEYE_ISO_SMILES>
C#CC1=CC=CC2=C(C=NN21)CN3CCN(CC3)C4=CC=C(C=C4)Cl

> <PUBCHEM_CACTVS_TPSA>
23.8

> <PUBCHEM_MONOISOTOPIC_WEIGHT>
350.1298243

> <PUBCHEM_TOTAL_CHARGE>
0

> <PUBCHEM_HEAVY_ATOM_COUNT>
25

> <PUBCHEM_ATOM_DEF_STEREO_COUNT>
0

> <PUBCHEM_ATOM_UDEF_STEREO_COUNT>
0

> <PUBCHEM_BOND_DEF_STEREO_COUNT>
0

> <PUBCHEM_BOND_UDEF_STEREO_COUNT>
0

> <PUBCHEM_ISOTOPIC_ATOM_COUNT>
0

> <PUBCHEM_COMPONENT_COUNT>
1

> <PUBCHEM_CACTVS_TAUTO_COUNT>
-1

> <PUBCHEM_COORDINATE_TYPE>
1
5
255

> <PUBCHEM_BONDANNOTATIONS>
11  13  8
11  14  8
12  15  8
12  16  8
13  17  8
15  19  8
16  20  8
17  21  8
18  22  8
19  23  8
20  23  8
21  22  8
4  13  8
4  18  8
4  5  8
5  14  8

$$$$
