53363201
  -OEChem-09292322322D

137143  0     0  0  0  0  0  0999 V2000
    7.1962  -14.6385    0.0000 O   0  0  0  0  0  0  0  0  0  0  0  0
    4.5981   -7.1385    0.0000 O   0  0  0  0  0  0  0  0  0  0  0  0
    2.8660   -8.1385    0.0000 O   0  0  0  0  0  0  0  0  0  0  0  0
   10.3742    9.6385    0.0000 O   0  0  0  0  0  0  0  0  0  0  0  0
   12.1062   10.6385    0.0000 O   0  0  0  0  0  0  0  0  0  0  0  0
    5.4641  -11.6385    0.0000 N   0  0  0  0  0  0  0  0  0  0  0  0
    7.1962  -12.6385    0.0000 N   0  0  0  0  0  0  0  0  0  0  0  0
    9.5081   14.1385    0.0000 N   0  0  0  0  0  0  0  0  0  0  0  0
    7.7761   15.1385    0.0000 N   0  0  0  0  0  0  0  0  0  0  0  0
    6.8301   -2.5996    0.0000 N   0  0  0  0  0  0  0  0  0  0  0  0
    8.1421    5.0996    0.0000 N   0  0  0  0  0  0  0  0  0  0  0  0
    5.8301   -2.5996    0.0000 N   0  0  0  0  0  0  0  0  0  0  0  0
    9.1421    5.0996    0.0000 N   0  0  0  0  0  0  0  0  0  0  0  0
    5.5211   -3.5507    0.0000 N   0  0  0  0  0  0  0  0  0  0  0  0
    9.4511    6.0507    0.0000 N   0  0  0  0  0  0  0  0  0  0  0  0
    5.4641  -12.6385    0.0000 C   0  0  0  0  0  0  0  0  0  0  0  0
    6.3301  -11.1385    0.0000 C   0  0  0  0  0  0  0  0  0  0  0  0
    6.3301  -13.1385    0.0000 C   0  0  0  0  0  0  0  0  0  0  0  0
    7.1962  -11.6385    0.0000 C   0  0  0  0  0  0  0  0  0  0  0  0
    9.5081   15.1385    0.0000 C   0  0  0  0  0  0  0  0  0  0  0  0
    8.6421   13.6385    0.0000 C   0  0  0  0  0  0  0  0  0  0  0  0
    8.6421   15.6385    0.0000 C   0  0  0  0  0  0  0  0  0  0  0  0
    7.7761   14.1385    0.0000 C   0  0  0  0  0  0  0  0  0  0  0  0
    4.5981  -11.1385    0.0000 C   0  0  0  0  0  0  0  0  0  0  0  0
   10.3742   13.6385    0.0000 C   0  0  0  0  0  0  0  0  0  0  0  0
    8.0622  -13.1385    0.0000 C   0  0  0  0  0  0  0  0  0  0  0  0
    4.5981  -10.1385    0.0000 C   0  0  0  0  0  0  0  0  0  0  0  0
    6.9101   15.6385    0.0000 C   0  0  0  0  0  0  0  0  0  0  0  0
   10.3742   12.6385    0.0000 C   0  0  0  0  0  0  0  0  0  0  0  0
    8.0622  -14.1385    0.0000 C   0  0  0  0  0  0  0  0  0  0  0  0
    8.9282  -12.6385    0.0000 C   0  0  0  0  0  0  0  0  0  0  0  0
    3.7320   -9.6385    0.0000 C   0  0  0  0  0  0  0  0  0  0  0  0
    5.4641   -9.6385    0.0000 C   0  0  0  0  0  0  0  0  0  0  0  0
   11.2402   12.1385    0.0000 C   0  0  0  0  0  0  0  0  0  0  0  0
    7.1922    0.8455    0.0000 C   0  0  0  0  0  0  0  0  0  0  0  0
    7.7800    1.6545    0.0000 C   0  0  0  0  0  0  0  0  0  0  0  0
    9.5081   12.1385    0.0000 C   0  0  0  0  0  0  0  0  0  0  0  0
    8.9282  -14.6385    0.0000 C   0  0  0  0  0  0  0  0  0  0  0  0
    7.5990   -0.0681    0.0000 C   0  0  0  0  0  0  0  0  0  0  0  0
    7.3733    2.5680    0.0000 C   0  0  0  0  0  0  0  0  0  0  0  0
    9.7942  -13.1385    0.0000 C   0  0  0  0  0  0  0  0  0  0  0  0
    3.7320   -8.6385    0.0000 C   0  0  0  0  0  0  0  0  0  0  0  0
    7.0112   -0.8771    0.0000 C   0  0  0  0  0  0  0  0  0  0  0  0
    7.9611    3.3771    0.0000 C   0  0  0  0  0  0  0  0  0  0  0  0
    5.4641   -8.6385    0.0000 C   0  0  0  0  0  0  0  0  0  0  0  0
    4.5981   -8.1385    0.0000 C   0  0  0  0  0  0  0  0  0  0  0  0
    9.7942  -14.1385    0.0000 C   0  0  0  0  0  0  0  0  0  0  0  0
   11.2402   11.1385    0.0000 C   0  0  0  0  0  0  0  0  0  0  0  0
    9.5081   11.1385    0.0000 C   0  0  0  0  0  0  0  0  0  0  0  0
   10.3742   10.6385    0.0000 C   0  0  0  0  0  0  0  0  0  0  0  0
    7.4179   -1.7906    0.0000 C   0  0  0  0  0  0  0  0  0  0  0  0
    7.5543    4.2906    0.0000 C   0  0  0  0  0  0  0  0  0  0  0  0
    5.4641   -6.6385    0.0000 C   0  0  0  0  0  0  0  0  0  0  0  0
    5.4641   -5.6385    0.0000 C   0  0  0  0  0  0  0  0  0  0  0  0
    6.3301   -5.1385    0.0000 C   0  0  0  0  0  0  0  0  0  0  0  0
    9.5081    8.1385    0.0000 C   0  0  0  0  0  0  0  0  0  0  0  0
    9.5081    9.1385    0.0000 C   0  0  0  0  0  0  0  0  0  0  0  0
    7.1962  -15.6385    0.0000 C   0  0  0  0  0  0  0  0  0  0  0  0
    8.6421    7.6385    0.0000 C   0  0  0  0  0  0  0  0  0  0  0  0
    6.3301   -4.1385    0.0000 C   0  0  0  0  0  0  0  0  0  0  0  0
    7.1391   -3.5507    0.0000 C   0  0  0  0  0  0  0  0  0  0  0  0
    8.6421    6.6385    0.0000 C   0  0  0  0  0  0  0  0  0  0  0  0
    7.8331    6.0507    0.0000 C   0  0  0  0  0  0  0  0  0  0  0  0
    2.0000   -8.6385    0.0000 C   0  0  0  0  0  0  0  0  0  0  0  0
   12.9722   11.1385    0.0000 C   0  0  0  0  0  0  0  0  0  0  0  0
    4.8535  -12.5308    0.0000 H   0  0  0  0  0  0  0  0  0  0  0  0
    5.2520  -13.2211    0.0000 H   0  0  0  0  0  0  0  0  0  0  0  0
    6.7287  -10.6635    0.0000 H   0  0  0  0  0  0  0  0  0  0  0  0
    5.9316  -10.6635    0.0000 H   0  0  0  0  0  0  0  0  0  0  0  0
    5.9316  -13.6134    0.0000 H   0  0  0  0  0  0  0  0  0  0  0  0
    6.7287  -13.6134    0.0000 H   0  0  0  0  0  0  0  0  0  0  0  0
    7.8067  -11.7461    0.0000 H   0  0  0  0  0  0  0  0  0  0  0  0
    7.4082  -11.0559    0.0000 H   0  0  0  0  0  0  0  0  0  0  0  0
   10.1187   15.0308    0.0000 H   0  0  0  0  0  0  0  0  0  0  0  0
    9.7202   15.7211    0.0000 H   0  0  0  0  0  0  0  0  0  0  0  0
    8.2436   13.1635    0.0000 H   0  0  0  0  0  0  0  0  0  0  0  0
    9.0406   13.1635    0.0000 H   0  0  0  0  0  0  0  0  0  0  0  0
    9.0406   16.1134    0.0000 H   0  0  0  0  0  0  0  0  0  0  0  0
    8.2436   16.1134    0.0000 H   0  0  0  0  0  0  0  0  0  0  0  0
    7.1655   14.2461    0.0000 H   0  0  0  0  0  0  0  0  0  0  0  0
    7.5640   13.5559    0.0000 H   0  0  0  0  0  0  0  0  0  0  0  0
    3.9875  -11.0308    0.0000 H   0  0  0  0  0  0  0  0  0  0  0  0
    4.3860  -11.7211    0.0000 H   0  0  0  0  0  0  0  0  0  0  0  0
   10.9847   13.5308    0.0000 H   0  0  0  0  0  0  0  0  0  0  0  0
   10.5862   14.2211    0.0000 H   0  0  0  0  0  0  0  0  0  0  0  0
    7.2201   16.1754    0.0000 H   0  0  0  0  0  0  0  0  0  0  0  0
    6.3731   15.9485    0.0000 H   0  0  0  0  0  0  0  0  0  0  0  0
    6.6001   15.1015    0.0000 H   0  0  0  0  0  0  0  0  0  0  0  0
    8.9282  -12.0185    0.0000 H   0  0  0  0  0  0  0  0  0  0  0  0
    3.1951   -9.9485    0.0000 H   0  0  0  0  0  0  0  0  0  0  0  0
    6.0010   -9.9485    0.0000 H   0  0  0  0  0  0  0  0  0  0  0  0
    6.7615    1.2915    0.0000 H   0  0  0  0  0  0  0  0  0  0  0  0
    6.6782    0.4988    0.0000 H   0  0  0  0  0  0  0  0  0  0  0  0
    8.2107    1.2085    0.0000 H   0  0  0  0  0  0  0  0  0  0  0  0
    8.2940    2.0012    0.0000 H   0  0  0  0  0  0  0  0  0  0  0  0
   11.7771   12.4485    0.0000 H   0  0  0  0  0  0  0  0  0  0  0  0
    8.9712   12.4485    0.0000 H   0  0  0  0  0  0  0  0  0  0  0  0
    8.9282  -15.2585    0.0000 H   0  0  0  0  0  0  0  0  0  0  0  0
    8.0296   -0.5140    0.0000 H   0  0  0  0  0  0  0  0  0  0  0  0
    8.1130    0.2786    0.0000 H   0  0  0  0  0  0  0  0  0  0  0  0
    6.9426    3.0140    0.0000 H   0  0  0  0  0  0  0  0  0  0  0  0
    6.8593    2.2214    0.0000 H   0  0  0  0  0  0  0  0  0  0  0  0
   10.3312  -12.8285    0.0000 H   0  0  0  0  0  0  0  0  0  0  0  0
    6.5805   -0.4311    0.0000 H   0  0  0  0  0  0  0  0  0  0  0  0
    6.4972   -1.2238    0.0000 H   0  0  0  0  0  0  0  0  0  0  0  0
    8.3918    2.9311    0.0000 H   0  0  0  0  0  0  0  0  0  0  0  0
    8.4751    3.7238    0.0000 H   0  0  0  0  0  0  0  0  0  0  0  0
    6.0010   -8.3285    0.0000 H   0  0  0  0  0  0  0  0  0  0  0  0
   10.3312  -14.4485    0.0000 H   0  0  0  0  0  0  0  0  0  0  0  0
    8.9712   10.8285    0.0000 H   0  0  0  0  0  0  0  0  0  0  0  0
    7.8486   -2.2366    0.0000 H   0  0  0  0  0  0  0  0  0  0  0  0
    7.9319   -1.4439    0.0000 H   0  0  0  0  0  0  0  0  0  0  0  0
    7.1236    4.7366    0.0000 H   0  0  0  0  0  0  0  0  0  0  0  0
    7.0403    3.9439    0.0000 H   0  0  0  0  0  0  0  0  0  0  0  0
    5.6762   -7.2211    0.0000 H   0  0  0  0  0  0  0  0  0  0  0  0
    6.0747   -6.5308    0.0000 H   0  0  0  0  0  0  0  0  0  0  0  0
    5.2520   -5.0559    0.0000 H   0  0  0  0  0  0  0  0  0  0  0  0
    4.8535   -5.7461    0.0000 H   0  0  0  0  0  0  0  0  0  0  0  0
    6.5422   -5.7211    0.0000 H   0  0  0  0  0  0  0  0  0  0  0  0
    6.9407   -5.0308    0.0000 H   0  0  0  0  0  0  0  0  0  0  0  0
    9.7202    7.5559    0.0000 H   0  0  0  0  0  0  0  0  0  0  0  0
   10.1187    8.2461    0.0000 H   0  0  0  0  0  0  0  0  0  0  0  0
    9.2961    9.7211    0.0000 H   0  0  0  0  0  0  0  0  0  0  0  0
    8.8976    9.0308    0.0000 H   0  0  0  0  0  0  0  0  0  0  0  0
    6.5762  -15.6385    0.0000 H   0  0  0  0  0  0  0  0  0  0  0  0
    7.1962  -16.2585    0.0000 H   0  0  0  0  0  0  0  0  0  0  0  0
    7.8162  -15.6385    0.0000 H   0  0  0  0  0  0  0  0  0  0  0  0
    8.4300    8.2211    0.0000 H   0  0  0  0  0  0  0  0  0  0  0  0
    8.0315    7.5308    0.0000 H   0  0  0  0  0  0  0  0  0  0  0  0
    7.7288   -3.7423    0.0000 H   0  0  0  0  0  0  0  0  0  0  0  0
    7.2434    6.2423    0.0000 H   0  0  0  0  0  0  0  0  0  0  0  0
    1.6900   -8.1015    0.0000 H   0  0  0  0  0  0  0  0  0  0  0  0
    1.4631   -8.9485    0.0000 H   0  0  0  0  0  0  0  0  0  0  0  0
    2.3100   -9.1754    0.0000 H   0  0  0  0  0  0  0  0  0  0  0  0
   13.2822   10.6015    0.0000 H   0  0  0  0  0  0  0  0  0  0  0  0
   13.5092   11.4485    0.0000 H   0  0  0  0  0  0  0  0  0  0  0  0
   12.6622   11.6754    0.0000 H   0  0  0  0  0  0  0  0  0  0  0  0
  1 30  1  0  0  0  0
  1 58  1  0  0  0  0
  2 46  1  0  0  0  0
  2 53  1  0  0  0  0
  3 42  1  0  0  0  0
  3 64  1  0  0  0  0
  4 50  1  0  0  0  0
  4 57  1  0  0  0  0
  5 48  1  0  0  0  0
  5 65  1  0  0  0  0
  6 16  1  0  0  0  0
  6 17  1  0  0  0  0
  6 24  1  0  0  0  0
  7 18  1  0  0  0  0
  7 19  1  0  0  0  0
  7 26  1  0  0  0  0
  8 20  1  0  0  0  0
  8 21  1  0  0  0  0
  8 25  1  0  0  0  0
  9 22  1  0  0  0  0
  9 23  1  0  0  0  0
  9 28  1  0  0  0  0
 10 12  1  0  0  0  0
 10 51  1  0  0  0  0
 10 61  1  0  0  0  0
 11 13  1  0  0  0  0
 11 52  1  0  0  0  0
 11 63  1  0  0  0  0
 12 14  2  0  0  0  0
 13 15  2  0  0  0  0
 14 60  1  0  0  0  0
 15 62  1  0  0  0  0
 16 18  1  0  0  0  0
 16 66  1  0  0  0  0
 16 67  1  0  0  0  0
 17 19  1  0  0  0  0
 17 68  1  0  0  0  0
 17 69  1  0  0  0  0
 18 70  1  0  0  0  0
 18 71  1  0  0  0  0
 19 72  1  0  0  0  0
 19 73  1  0  0  0  0
 20 22  1  0  0  0  0
 20 74  1  0  0  0  0
 20 75  1  0  0  0  0
 21 23  1  0  0  0  0
 21 76  1  0  0  0  0
 21 77  1  0  0  0  0
 22 78  1  0  0  0  0
 22 79  1  0  0  0  0
 23 80  1  0  0  0  0
 23 81  1  0  0  0  0
 24 27  1  0  0  0  0
 24 82  1  0  0  0  0
 24 83  1  0  0  0  0
 25 29  1  0  0  0  0
 25 84  1  0  0  0  0
 25 85  1  0  0  0  0
 26 30  1  0  0  0  0
 26 31  2  0  0  0  0
 27 32  2  0  0  0  0
 27 33  1  0  0  0  0
 28 86  1  0  0  0  0
 28 87  1  0  0  0  0
 28 88  1  0  0  0  0
 29 34  2  0  0  0  0
 29 37  1  0  0  0  0
 30 38  2  0  0  0  0
 31 41  1  0  0  0  0
 31 89  1  0  0  0  0
 32 42  1  0  0  0  0
 32 90  1  0  0  0  0
 33 45  2  0  0  0  0
 33 91  1  0  0  0  0
 34 48  1  0  0  0  0
 34 96  1  0  0  0  0
 35 36  1  0  0  0  0
 35 39  1  0  0  0  0
 35 92  1  0  0  0  0
 35 93  1  0  0  0  0
 36 40  1  0  0  0  0
 36 94  1  0  0  0  0
 36 95  1  0  0  0  0
 37 49  2  0  0  0  0
 37 97  1  0  0  0  0
 38 47  1  0  0  0  0
 38 98  1  0  0  0  0
 39 43  1  0  0  0  0
 39 99  1  0  0  0  0
 39100  1  0  0  0  0
 40 44  1  0  0  0  0
 40101  1  0  0  0  0
 40102  1  0  0  0  0
 41 47  2  0  0  0  0
 41103  1  0  0  0  0
 42 46  2  0  0  0  0
 43 51  1  0  0  0  0
 43104  1  0  0  0  0
 43105  1  0  0  0  0
 44 52  1  0  0  0  0
 44106  1  0  0  0  0
 44107  1  0  0  0  0
 45 46  1  0  0  0  0
 45108  1  0  0  0  0
 47109  1  0  0  0  0
 48 50  2  0  0  0  0
 49 50  1  0  0  0  0
 49110  1  0  0  0  0
 51111  1  0  0  0  0
 51112  1  0  0  0  0
 52113  1  0  0  0  0
 52114  1  0  0  0  0
 53 54  1  0  0  0  0
 53115  1  0  0  0  0
 53116  1  0  0  0  0
 54 55  1  0  0  0  0
 54117  1  0  0  0  0
 54118  1  0  0  0  0
 55 60  1  0  0  0  0
 55119  1  0  0  0  0
 55120  1  0  0  0  0
 56 57  1  0  0  0  0
 56 59  1  0  0  0  0
 56121  1  0  0  0  0
 56122  1  0  0  0  0
 57123  1  0  0  0  0
 57124  1  0  0  0  0
 58125  1  0  0  0  0
 58126  1  0  0  0  0
 58127  1  0  0  0  0
 59 62  1  0  0  0  0
 59128  1  0  0  0  0
 59129  1  0  0  0  0
 60 61  2  0  0  0  0
 61130  1  0  0  0  0
 62 63  2  0  0  0  0
 63131  1  0  0  0  0
 64132  1  0  0  0  0
 64133  1  0  0  0  0
 64134  1  0  0  0  0
 65135  1  0  0  0  0
 65136  1  0  0  0  0
 65137  1  0  0  0  0
M  END
> <PUBCHEM_COMPOUND_CID>
53363201

> <PUBCHEM_COMPOUND_CANONICALIZED>
1

> <PUBCHEM_CACTVS_COMPLEXITY>
1260

> <PUBCHEM_CACTVS_HBOND_ACCEPTOR>
13

> <PUBCHEM_CACTVS_HBOND_DONOR>
0

> <PUBCHEM_CACTVS_ROTATABLE_BOND>
27

> <PUBCHEM_CACTVS_SUBSKEYS>
AAADcfB/+AAAAAAAAAAAAAAAAAAAAWLAAAA8eMECAAAAAAAB9AAAHgAIAAAADAzhngY+xpMIBACiAzRnRACCDAQxsgAY2AA//IgPZiLEsZuXOCrkwBHa6Aew0JIOIAABAAAAUABAAAIAAACgAAAAAAAAAA==

> <PUBCHEM_IUPAC_OPENEYE_NAME>
1-[[3-methoxy-4-[3-[1-[8-[4-[3-[2-methoxy-4-[[4-(2-methoxyphenyl)piperazin-1-yl]methyl]phenoxy]propyl]triazol-1-yl]octyl]triazol-4-yl]propoxy]phenyl]methyl]-4-methyl-piperazine

> <PUBCHEM_IUPAC_CAS_NAME>
1-[[3-methoxy-4-[3-[1-[8-[4-[3-[2-methoxy-4-[[4-(2-methoxyphenyl)-1-piperazinyl]methyl]phenoxy]propyl]-1-triazolyl]octyl]-4-triazolyl]propoxy]phenyl]methyl]-4-methylpiperazine

> <PUBCHEM_IUPAC_NAME_MARKUP>
1-[[3-methoxy-4-[3-[1-[8-[4-[3-[2-methoxy-4-[[4-(2-methoxyphenyl)piperazin-1-yl]methyl]phenoxy]propyl]triazol-1-yl]octyl]triazol-4-yl]propoxy]phenyl]methyl]-4-methylpiperazine

> <PUBCHEM_IUPAC_NAME>
1-[[3-methoxy-4-[3-[1-[8-[4-[3-[2-methoxy-4-[[4-(2-methoxyphenyl)piperazin-1-yl]methyl]phenoxy]propyl]triazol-1-yl]octyl]triazol-4-yl]propoxy]phenyl]methyl]-4-methylpiperazine

> <PUBCHEM_IUPAC_SYSTEMATIC_NAME>
1-[[3-methoxy-4-[3-[1-[8-[4-[3-[2-methoxy-4-[[4-(2-methoxyphenyl)piperazin-1-yl]methyl]phenoxy]propyl]-1,2,3-triazol-1-yl]octyl]-1,2,3-triazol-4-yl]propoxy]phenyl]methyl]-4-methyl-piperazine

> <PUBCHEM_IUPAC_TRADITIONAL_NAME>
1-[3-methoxy-4-[3-[1-[8-[4-[3-[2-methoxy-4-[[4-(2-methoxyphenyl)piperazino]methyl]phenoxy]propyl]triazol-1-yl]octyl]triazol-4-yl]propoxy]benzyl]-4-methyl-piperazine

> <PUBCHEM_IUPAC_INCHI>
InChI=1S/C50H72N10O5/c1-55-25-27-56(28-26-55)37-41-19-21-47(49(35-41)62-3)64-33-13-15-43-39-59(53-51-43)23-11-7-5-6-8-12-24-60-40-44(52-54-60)16-14-34-65-48-22-20-42(36-50(48)63-4)38-57-29-31-58(32-30-57)45-17-9-10-18-46(45)61-2/h9-10,17-22,35-36,39-40H,5-8,11-16,23-34,37-38H2,1-4H3

> <PUBCHEM_IUPAC_INCHIKEY>
CAQUTUYOOHXKBM-UHFFFAOYSA-N

> <PUBCHEM_XLOGP3_AA>
7.2

> <PUBCHEM_EXACT_MASS>
892.56871544

> <PUBCHEM_MOLECULAR_FORMULA>
C50H72N10O5

> <PUBCHEM_MOLECULAR_WEIGHT>
893.2

> <PUBCHEM_OPENEYE_CAN_SMILES>
CN1CCN(CC1)CC2=CC(=C(C=C2)OCCCC3=CN(N=N3)CCCCCCCCN4C=C(N=N4)CCCOC5=C(C=C(C=C5)CN6CCN(CC6)C7=CC=CC=C7OC)OC)OC

> <PUBCHEM_OPENEYE_ISO_SMILES>
CN1CCN(CC1)CC2=CC(=C(C=C2)OCCCC3=CN(N=N3)CCCCCCCCN4C=C(N=N4)CCCOC5=C(C=C(C=C5)CN6CCN(CC6)C7=CC=CC=C7OC)OC)OC

> <PUBCHEM_CACTVS_TPSA>
121

> <PUBCHEM_MONOISOTOPIC_WEIGHT>
892.56871544

> <PUBCHEM_TOTAL_CHARGE>
0

> <PUBCHEM_HEAVY_ATOM_COUNT>
65

> <PUBCHEM_ATOM_DEF_STEREO_COUNT>
0

> <PUBCHEM_ATOM_UDEF_STEREO_COUNT>
0

> <PUBCHEM_BOND_DEF_STEREO_COUNT>
0

> <PUBCHEM_BOND_UDEF_STEREO_COUNT>
0

> <PUBCHEM_ISOTOPIC_ATOM_COUNT>
0

> <PUBCHEM_COMPONENT_COUNT>
1

> <PUBCHEM_CACTVS_TAUTO_COUNT>
-1

> <PUBCHEM_COORDINATE_TYPE>
1
5
255

> <PUBCHEM_BONDANNOTATIONS>
10  12  8
10  61  8
11  13  8
11  63  8
12  14  8
13  15  8
14  60  8
15  62  8
26  30  8
26  31  8
27  32  8
27  33  8
29  34  8
29  37  8
30  38  8
31  41  8
32  42  8
33  45  8
34  48  8
37  49  8
38  47  8
41  47  8
42  46  8
45  46  8
48  50  8
49  50  8
60  61  8
62  63  8

$$$$
