137646568
  -OEChem-09292322062D

 55 59  0     0  0  0  0  0  0999 V2000
   11.8031   -2.8663    0.0000 S   0  0  0  0  0  0  0  0  0  0  0  0
    4.6660   -1.1683    0.0000 O   0  0  0  0  0  0  0  0  0  0  0  0
    2.9176    2.8663    0.0000 O   0  0  0  0  0  0  0  0  0  0  0  0
    8.1301   -0.1683    0.0000 N   0  0  0  0  0  0  0  0  0  0  0  0
    9.8622   -1.1683    0.0000 N   0  0  0  0  0  0  0  0  0  0  0  0
    3.8000    0.3317    0.0000 N   0  0  0  0  0  0  0  0  0  0  0  0
    4.6660    1.8317    0.0000 N   0  0  0  0  0  0  0  0  0  0  0  0
   10.8313   -2.6571    0.0000 N   0  0  0  0  0  0  0  0  0  0  0  0
    8.1301   -1.1683    0.0000 C   0  0  0  0  0  0  0  0  0  0  0  0
    8.9962    0.3317    0.0000 C   0  0  0  0  0  0  0  0  0  0  0  0
    8.9962   -1.6683    0.0000 C   0  0  0  0  0  0  0  0  0  0  0  0
    9.8622   -0.1683    0.0000 C   0  0  0  0  0  0  0  0  0  0  0  0
    7.2641    0.3317    0.0000 C   0  0  0  0  0  0  0  0  0  0  0  0
    6.3981   -0.1683    0.0000 C   0  0  0  0  0  0  0  0  0  0  0  0
    5.5321    0.3317    0.0000 C   0  0  0  0  0  0  0  0  0  0  0  0
   10.7282   -1.6683    0.0000 C   0  0  0  0  0  0  0  0  0  0  0  0
    2.9061   -0.2030    0.0000 C   0  0  0  0  0  0  0  0  0  0  0  0
    4.6660   -0.1683    0.0000 C   0  0  0  0  0  0  0  0  0  0  0  0
    2.0000    0.3109    0.0000 C   0  0  0  0  0  0  0  0  0  0  0  0
    3.8000    1.3317    0.0000 C   0  0  0  0  0  0  0  0  0  0  0  0
    5.5321    1.3317    0.0000 C   0  0  0  0  0  0  0  0  0  0  0  0
    2.0000    1.3525    0.0000 C   0  0  0  0  0  0  0  0  0  0  0  0
   11.6360   -1.2632    0.0000 C   0  0  0  0  0  0  0  0  0  0  0  0
    2.9061    1.8663    0.0000 C   0  0  0  0  0  0  0  0  0  0  0  0
   12.3038   -2.0075    0.0000 C   0  0  0  0  0  0  0  0  0  0  0  0
    6.3981    1.8317    0.0000 C   0  0  0  0  0  0  0  0  0  0  0  0
   11.9467   -0.3127    0.0000 C   0  0  0  0  0  0  0  0  0  0  0  0
   13.2823   -1.8013    0.0000 C   0  0  0  0  0  0  0  0  0  0  0  0
   12.9252   -0.1065    0.0000 C   0  0  0  0  0  0  0  0  0  0  0  0
   13.5930   -0.8508    0.0000 C   0  0  0  0  0  0  0  0  0  0  0  0
    7.5196   -1.0607    0.0000 H   0  0  0  0  0  0  0  0  0  0  0  0
    7.9181   -1.7509    0.0000 H   0  0  0  0  0  0  0  0  0  0  0  0
    9.3947    0.8066    0.0000 H   0  0  0  0  0  0  0  0  0  0  0  0
    8.5976    0.8066    0.0000 H   0  0  0  0  0  0  0  0  0  0  0  0
    8.5976   -2.1433    0.0000 H   0  0  0  0  0  0  0  0  0  0  0  0
    9.3947   -2.1433    0.0000 H   0  0  0  0  0  0  0  0  0  0  0  0
   10.4728   -0.2760    0.0000 H   0  0  0  0  0  0  0  0  0  0  0  0
   10.0742    0.4143    0.0000 H   0  0  0  0  0  0  0  0  0  0  0  0
    7.6626    0.8066    0.0000 H   0  0  0  0  0  0  0  0  0  0  0  0
    6.8656    0.8066    0.0000 H   0  0  0  0  0  0  0  0  0  0  0  0
    5.9996   -0.6433    0.0000 H   0  0  0  0  0  0  0  0  0  0  0  0
    6.7966   -0.6433    0.0000 H   0  0  0  0  0  0  0  0  0  0  0  0
    2.5124   -0.6820    0.0000 H   0  0  0  0  0  0  0  0  0  0  0  0
    3.3107   -0.6728    0.0000 H   0  0  0  0  0  0  0  0  0  0  0  0
    1.3891    0.4169    0.0000 H   0  0  0  0  0  0  0  0  0  0  0  0
    1.7909   -0.2728    0.0000 H   0  0  0  0  0  0  0  0  0  0  0  0
    1.7909    1.9362    0.0000 H   0  0  0  0  0  0  0  0  0  0  0  0
    1.3891    1.2464    0.0000 H   0  0  0  0  0  0  0  0  0  0  0  0
    6.7081    1.2947    0.0000 H   0  0  0  0  0  0  0  0  0  0  0  0
    6.9350    2.1417    0.0000 H   0  0  0  0  0  0  0  0  0  0  0  0
    6.0881    2.3686    0.0000 H   0  0  0  0  0  0  0  0  0  0  0  0
   11.5326    0.1488    0.0000 H   0  0  0  0  0  0  0  0  0  0  0  0
   13.6964   -2.2628    0.0000 H   0  0  0  0  0  0  0  0  0  0  0  0
   13.1178    0.4828    0.0000 H   0  0  0  0  0  0  0  0  0  0  0  0
   14.1997   -0.7229    0.0000 H   0  0  0  0  0  0  0  0  0  0  0  0
  1  8  1  0  0  0  0
  1 25  1  0  0  0  0
  2 18  2  0  0  0  0
  3 24  2  0  0  0  0
  4  9  1  0  0  0  0
  4 10  1  0  0  0  0
  4 13  1  0  0  0  0
  5 11  1  0  0  0  0
  5 12  1  0  0  0  0
  5 16  1  0  0  0  0
  6 17  1  0  0  0  0
  6 18  1  0  0  0  0
  6 20  1  0  0  0  0
  7 20  2  0  0  0  0
  7 21  1  0  0  0  0
  8 16  2  0  0  0  0
  9 11  1  0  0  0  0
  9 31  1  0  0  0  0
  9 32  1  0  0  0  0
 10 12  1  0  0  0  0
 10 33  1  0  0  0  0
 10 34  1  0  0  0  0
 11 35  1  0  0  0  0
 11 36  1  0  0  0  0
 12 37  1  0  0  0  0
 12 38  1  0  0  0  0
 13 14  1  0  0  0  0
 13 39  1  0  0  0  0
 13 40  1  0  0  0  0
 14 15  1  0  0  0  0
 14 41  1  0  0  0  0
 14 42  1  0  0  0  0
 15 18  1  0  0  0  0
 15 21  2  0  0  0  0
 16 23  1  0  0  0  0
 17 19  1  0  0  0  0
 17 43  1  0  0  0  0
 17 44  1  0  0  0  0
 19 22  1  0  0  0  0
 19 45  1  0  0  0  0
 19 46  1  0  0  0  0
 20 24  1  0  0  0  0
 21 26  1  0  0  0  0
 22 24  1  0  0  0  0
 22 47  1  0  0  0  0
 22 48  1  0  0  0  0
 23 25  1  0  0  0  0
 23 27  2  0  0  0  0
 25 28  2  0  0  0  0
 26 49  1  0  0  0  0
 26 50  1  0  0  0  0
 26 51  1  0  0  0  0
 27 29  1  0  0  0  0
 27 52  1  0  0  0  0
 28 30  1  0  0  0  0
 28 53  1  0  0  0  0
 29 30  2  0  0  0  0
 29 54  1  0  0  0  0
 30 55  1  0  0  0  0
M  END
> <PUBCHEM_COMPOUND_CID>
137646568

> <PUBCHEM_COMPOUND_CANONICALIZED>
1

> <PUBCHEM_CACTVS_COMPLEXITY>
774

> <PUBCHEM_CACTVS_HBOND_ACCEPTOR>
7

> <PUBCHEM_CACTVS_HBOND_DONOR>
0

> <PUBCHEM_CACTVS_ROTATABLE_BOND>
4

> <PUBCHEM_CACTVS_SUBSKEYS>
AAADceB7sABAAAAAAAAAAAAAAAAAAWAAAAA8WIEAAAAAAFiB8AAAHgQAQAAADAzB2gQzsdMAAACsAqdydACDABEhAABJmDmoRNiIYLLAmbGUIAxghgLIyUcUgAAOAAAAAAAEAAAAAAAAAAgAAAAAAAAAAA==

> <PUBCHEM_IUPAC_OPENEYE_NAME>
3-[2-[4-(1,2-benzothiazol-3-yl)piperazin-1-yl]ethyl]-2-methyl-7,8-dihydro-6H-pyrido[1,2-a]pyrimidine-4,9-dione

> <PUBCHEM_IUPAC_CAS_NAME>
3-[2-[4-(1,2-benzothiazol-3-yl)-1-piperazinyl]ethyl]-2-methyl-7,8-dihydro-6H-pyrido[1,2-a]pyrimidine-4,9-dione

> <PUBCHEM_IUPAC_NAME_MARKUP>
3-[2-[4-(1,2-benzothiazol-3-yl)piperazin-1-yl]ethyl]-2-methyl-7,8-dihydro-6<I>H</I>-pyrido[1,2-a]pyrimidine-4,9-dione

> <PUBCHEM_IUPAC_NAME>
3-[2-[4-(1,2-benzothiazol-3-yl)piperazin-1-yl]ethyl]-2-methyl-7,8-dihydro-6H-pyrido[1,2-a]pyrimidine-4,9-dione

> <PUBCHEM_IUPAC_SYSTEMATIC_NAME>
3-[2-[4-(1,2-benzothiazol-3-yl)piperazin-1-yl]ethyl]-2-methyl-7,8-dihydro-6H-pyrido[1,2-a]pyrimidine-4,9-dione

> <PUBCHEM_IUPAC_TRADITIONAL_NAME>
3-[2-[4-(1,2-benzothiazol-3-yl)piperazino]ethyl]-2-methyl-7,8-dihydro-6H-pyrido[1,2-a]pyrimidine-4,9-quinone

> <PUBCHEM_IUPAC_INCHI>
InChI=1S/C22H25N5O2S/c1-15-16(22(29)27-9-4-6-18(28)21(27)23-15)8-10-25-11-13-26(14-12-25)20-17-5-2-3-7-19(17)30-24-20/h2-3,5,7H,4,6,8-14H2,1H3

> <PUBCHEM_IUPAC_INCHIKEY>
HAAICBIKCYZOKA-UHFFFAOYSA-N

> <PUBCHEM_XLOGP3_AA>
2.4

> <PUBCHEM_EXACT_MASS>
423.17289623

> <PUBCHEM_MOLECULAR_FORMULA>
C22H25N5O2S

> <PUBCHEM_MOLECULAR_WEIGHT>
423.5

> <PUBCHEM_OPENEYE_CAN_SMILES>
CC1=C(C(=O)N2CCCC(=O)C2=N1)CCN3CCN(CC3)C4=NSC5=CC=CC=C54

> <PUBCHEM_OPENEYE_ISO_SMILES>
CC1=C(C(=O)N2CCCC(=O)C2=N1)CCN3CCN(CC3)C4=NSC5=CC=CC=C54

> <PUBCHEM_CACTVS_TPSA>
97.4

> <PUBCHEM_MONOISOTOPIC_WEIGHT>
423.17289623

> <PUBCHEM_TOTAL_CHARGE>
0

> <PUBCHEM_HEAVY_ATOM_COUNT>
30

> <PUBCHEM_ATOM_DEF_STEREO_COUNT>
0

> <PUBCHEM_ATOM_UDEF_STEREO_COUNT>
0

> <PUBCHEM_BOND_DEF_STEREO_COUNT>
0

> <PUBCHEM_BOND_UDEF_STEREO_COUNT>
0

> <PUBCHEM_ISOTOPIC_ATOM_COUNT>
0

> <PUBCHEM_COMPONENT_COUNT>
1

> <PUBCHEM_CACTVS_TAUTO_COUNT>
-1

> <PUBCHEM_COORDINATE_TYPE>
1
5
255

> <PUBCHEM_BONDANNOTATIONS>
1  25  8
1  8  8
15  18  8
15  21  8
16  23  8
23  25  8
23  27  8
25  28  8
27  29  8
28  30  8
29  30  8
6  18  8
6  20  8
7  20  8
7  21  8
8  16  8

$$$$
