164614820
  -OEChem-09292322432D

 73 77  0     0  0  0  0  0  0999 V2000
    2.0000   -7.3901    0.0000 F   0  0  0  0  0  0  0  0  0  0  0  0
    5.5443   -7.1948    0.0000 O   0  0  0  0  0  0  0  0  0  0  0  0
    9.0546   -0.4203    0.0000 O   0  0  0  0  0  0  0  0  0  0  0  0
    6.4763   -2.7338    0.0000 N   0  0  0  0  0  0  0  0  0  0  0  0
   11.5864    4.5385    0.0000 N   0  0  0  0  0  0  0  0  0  0  0  0
    6.1279   -6.3901    0.0000 N   0  0  0  0  0  0  0  0  0  0  0  0
    5.8550   -4.6348    0.0000 C   0  0  0  0  0  0  0  0  0  0  0  0
    5.1871   -3.8905    0.0000 C   0  0  0  0  0  0  0  0  0  0  0  0
    6.8335   -4.4286    0.0000 C   0  0  0  0  0  0  0  0  0  0  0  0
   12.2078    6.4396    0.0000 C   0  0  0  0  0  0  0  0  0  0  0  0
    5.4978   -2.9400    0.0000 C   0  0  0  0  0  0  0  0  0  0  0  0
    7.1441   -3.4781    0.0000 C   0  0  0  0  0  0  0  0  0  0  0  0
   11.2293    6.2333    0.0000 C   0  0  0  0  0  0  0  0  0  0  0  0
   12.8756    5.6952    0.0000 C   0  0  0  0  0  0  0  0  0  0  0  0
   10.9186    5.2828    0.0000 C   0  0  0  0  0  0  0  0  0  0  0  0
   12.5649    4.7447    0.0000 C   0  0  0  0  0  0  0  0  0  0  0  0
    6.7870   -1.7833    0.0000 C   0  0  0  0  0  0  0  0  0  0  0  0
    5.5443   -5.5853    0.0000 C   0  0  0  0  0  0  0  0  0  0  0  0
   11.2758    3.5880    0.0000 C   0  0  0  0  0  0  0  0  0  0  0  0
   12.5184    7.3901    0.0000 C   0  0  0  0  0  0  0  0  0  0  0  0
    7.7654   -1.5770    0.0000 C   0  0  0  0  0  0  0  0  0  0  0  0
    4.5981   -5.8901    0.0000 C   0  0  0  0  0  0  0  0  0  0  0  0
   10.2973    3.3818    0.0000 C   0  0  0  0  0  0  0  0  0  0  0  0
    8.0761   -0.6265    0.0000 C   0  0  0  0  0  0  0  0  0  0  0  0
    4.5981   -6.8901    0.0000 C   0  0  0  0  0  0  0  0  0  0  0  0
    9.9866    2.4313    0.0000 C   0  0  0  0  0  0  0  0  0  0  0  0
    3.7320   -5.3901    0.0000 C   0  0  0  0  0  0  0  0  0  0  0  0
    3.7320   -7.3901    0.0000 C   0  0  0  0  0  0  0  0  0  0  0  0
   10.6545    1.6870    0.0000 C   0  0  0  0  0  0  0  0  0  0  0  0
    9.0081    2.2250    0.0000 C   0  0  0  0  0  0  0  0  0  0  0  0
    9.3653    0.5302    0.0000 C   0  0  0  0  0  0  0  0  0  0  0  0
    2.8660   -5.8901    0.0000 C   0  0  0  0  0  0  0  0  0  0  0  0
    2.8660   -6.8901    0.0000 C   0  0  0  0  0  0  0  0  0  0  0  0
   10.3438    0.7364    0.0000 C   0  0  0  0  0  0  0  0  0  0  0  0
    8.6974    1.2745    0.0000 C   0  0  0  0  0  0  0  0  0  0  0  0
    6.2690   -5.0963    0.0000 H   0  0  0  0  0  0  0  0  0  0  0  0
    4.6402   -3.5985    0.0000 H   0  0  0  0  0  0  0  0  0  0  0  0
    4.8046   -4.3784    0.0000 H   0  0  0  0  0  0  0  0  0  0  0  0
    6.8540   -5.0483    0.0000 H   0  0  0  0  0  0  0  0  0  0  0  0
    7.4473   -4.5160    0.0000 H   0  0  0  0  0  0  0  0  0  0  0  0
   12.8144    6.5674    0.0000 H   0  0  0  0  0  0  0  0  0  0  0  0
    5.4772   -2.3203    0.0000 H   0  0  0  0  0  0  0  0  0  0  0  0
    4.8840   -2.8526    0.0000 H   0  0  0  0  0  0  0  0  0  0  0  0
    7.6910   -3.7701    0.0000 H   0  0  0  0  0  0  0  0  0  0  0  0
    7.5267   -2.9902    0.0000 H   0  0  0  0  0  0  0  0  0  0  0  0
   11.2087    6.8530    0.0000 H   0  0  0  0  0  0  0  0  0  0  0  0
   10.6154    6.3207    0.0000 H   0  0  0  0  0  0  0  0  0  0  0  0
   13.4225    5.4032    0.0000 H   0  0  0  0  0  0  0  0  0  0  0  0
   13.2582    6.1832    0.0000 H   0  0  0  0  0  0  0  0  0  0  0  0
   10.3717    5.5748    0.0000 H   0  0  0  0  0  0  0  0  0  0  0  0
   10.5360    4.7949    0.0000 H   0  0  0  0  0  0  0  0  0  0  0  0
   12.5855    4.1251    0.0000 H   0  0  0  0  0  0  0  0  0  0  0  0
   13.1788    4.6574    0.0000 H   0  0  0  0  0  0  0  0  0  0  0  0
    6.7664   -1.1636    0.0000 H   0  0  0  0  0  0  0  0  0  0  0  0
    6.1731   -1.6959    0.0000 H   0  0  0  0  0  0  0  0  0  0  0  0
   11.2963    2.9683    0.0000 H   0  0  0  0  0  0  0  0  0  0  0  0
   11.8896    3.5006    0.0000 H   0  0  0  0  0  0  0  0  0  0  0  0
   13.1077    7.1975    0.0000 H   0  0  0  0  0  0  0  0  0  0  0  0
   12.7110    7.9794    0.0000 H   0  0  0  0  0  0  0  0  0  0  0  0
   11.9291    7.5827    0.0000 H   0  0  0  0  0  0  0  0  0  0  0  0
    7.7860   -2.1967    0.0000 H   0  0  0  0  0  0  0  0  0  0  0  0
    8.3793   -1.6644    0.0000 H   0  0  0  0  0  0  0  0  0  0  0  0
   10.2767    4.0014    0.0000 H   0  0  0  0  0  0  0  0  0  0  0  0
    9.6834    3.4691    0.0000 H   0  0  0  0  0  0  0  0  0  0  0  0
    8.0556   -0.0069    0.0000 H   0  0  0  0  0  0  0  0  0  0  0  0
    7.4623   -0.5392    0.0000 H   0  0  0  0  0  0  0  0  0  0  0  0
    3.7320   -4.7701    0.0000 H   0  0  0  0  0  0  0  0  0  0  0  0
    3.7320   -8.0101    0.0000 H   0  0  0  0  0  0  0  0  0  0  0  0
   11.2611    1.8148    0.0000 H   0  0  0  0  0  0  0  0  0  0  0  0
    8.5940    2.6865    0.0000 H   0  0  0  0  0  0  0  0  0  0  0  0
    2.3291   -5.5801    0.0000 H   0  0  0  0  0  0  0  0  0  0  0  0
   10.7578    0.2750    0.0000 H   0  0  0  0  0  0  0  0  0  0  0  0
    8.0908    1.1467    0.0000 H   0  0  0  0  0  0  0  0  0  0  0  0
  1 33  1  0  0  0  0
  2  6  1  0  0  0  0
  2 25  1  0  0  0  0
  3 24  1  0  0  0  0
  3 31  1  0  0  0  0
  4 11  1  0  0  0  0
  4 12  1  0  0  0  0
  4 17  1  0  0  0  0
  5 15  1  0  0  0  0
  5 16  1  0  0  0  0
  5 19  1  0  0  0  0
  6 18  2  0  0  0  0
  7  8  1  0  0  0  0
  7  9  1  0  0  0  0
  7 18  1  0  0  0  0
  7 36  1  0  0  0  0
  8 11  1  0  0  0  0
  8 37  1  0  0  0  0
  8 38  1  0  0  0  0
  9 12  1  0  0  0  0
  9 39  1  0  0  0  0
  9 40  1  0  0  0  0
 10 13  1  0  0  0  0
 10 14  1  0  0  0  0
 10 20  1  0  0  0  0
 10 41  1  0  0  0  0
 11 42  1  0  0  0  0
 11 43  1  0  0  0  0
 12 44  1  0  0  0  0
 12 45  1  0  0  0  0
 13 15  1  0  0  0  0
 13 46  1  0  0  0  0
 13 47  1  0  0  0  0
 14 16  1  0  0  0  0
 14 48  1  0  0  0  0
 14 49  1  0  0  0  0
 15 50  1  0  0  0  0
 15 51  1  0  0  0  0
 16 52  1  0  0  0  0
 16 53  1  0  0  0  0
 17 21  1  0  0  0  0
 17 54  1  0  0  0  0
 17 55  1  0  0  0  0
 18 22  1  0  0  0  0
 19 23  1  0  0  0  0
 19 56  1  0  0  0  0
 19 57  1  0  0  0  0
 20 58  1  0  0  0  0
 20 59  1  0  0  0  0
 20 60  1  0  0  0  0
 21 24  1  0  0  0  0
 21 61  1  0  0  0  0
 21 62  1  0  0  0  0
 22 25  2  0  0  0  0
 22 27  1  0  0  0  0
 23 26  1  0  0  0  0
 23 63  1  0  0  0  0
 23 64  1  0  0  0  0
 24 65  1  0  0  0  0
 24 66  1  0  0  0  0
 25 28  1  0  0  0  0
 26 29  2  0  0  0  0
 26 30  1  0  0  0  0
 27 32  2  0  0  0  0
 27 67  1  0  0  0  0
 28 33  2  0  0  0  0
 28 68  1  0  0  0  0
 29 34  1  0  0  0  0
 29 69  1  0  0  0  0
 30 35  2  0  0  0  0
 30 70  1  0  0  0  0
 31 34  2  0  0  0  0
 31 35  1  0  0  0  0
 32 33  1  0  0  0  0
 32 71  1  0  0  0  0
 34 72  1  0  0  0  0
 35 73  1  0  0  0  0
M  END
> <PUBCHEM_COMPOUND_CID>
164614820

> <PUBCHEM_COMPOUND_CANONICALIZED>
1

> <PUBCHEM_CACTVS_COMPLEXITY>
615

> <PUBCHEM_CACTVS_HBOND_ACCEPTOR>
6

> <PUBCHEM_CACTVS_HBOND_DONOR>
0

> <PUBCHEM_CACTVS_ROTATABLE_BOND>
9

> <PUBCHEM_CACTVS_SUBSKEYS>
AAADcfB7MQAAAAAAAAAAAAAAAAAAAWAAAAA8eIEAAAAAAFgB9AAAHwAEAAAADQzhng4yhtMQBACpA6RyQgCCCAAkIAAomCE+TNoMJrqEtZuGOaDmwBmI6ceYyOCOIAAAAAAIAABAAAAAABAAAAAAAAAAAA==

> <PUBCHEM_IUPAC_OPENEYE_NAME>
6-fluoro-3-[1-[3-[4-[2-(4-methyl-1-piperidyl)ethyl]phenoxy]propyl]-4-piperidyl]-1,2-benzoxazole

> <PUBCHEM_IUPAC_CAS_NAME>
6-fluoro-3-[1-[3-[4-[2-(4-methyl-1-piperidinyl)ethyl]phenoxy]propyl]-4-piperidinyl]-1,2-benzoxazole

> <PUBCHEM_IUPAC_NAME_MARKUP>
6-fluoro-3-[1-[3-[4-[2-(4-methylpiperidin-1-yl)ethyl]phenoxy]propyl]piperidin-4-yl]-1,2-benzoxazole

> <PUBCHEM_IUPAC_NAME>
6-fluoro-3-[1-[3-[4-[2-(4-methylpiperidin-1-yl)ethyl]phenoxy]propyl]piperidin-4-yl]-1,2-benzoxazole

> <PUBCHEM_IUPAC_SYSTEMATIC_NAME>
6-fluoranyl-3-[1-[3-[4-[2-(4-methylpiperidin-1-yl)ethyl]phenoxy]propyl]piperidin-4-yl]-1,2-benzoxazole

> <PUBCHEM_IUPAC_TRADITIONAL_NAME>
6-fluoro-3-[1-[3-[4-[2-(4-methylpiperidino)ethyl]phenoxy]propyl]-4-piperidyl]indoxazene

> <PUBCHEM_IUPAC_INCHI>
InChI=1S/C29H38FN3O2/c1-22-9-15-33(16-10-22)17-11-23-3-6-26(7-4-23)34-20-2-14-32-18-12-24(13-19-32)29-27-8-5-25(30)21-28(27)35-31-29/h3-8,21-22,24H,2,9-20H2,1H3

> <PUBCHEM_IUPAC_INCHIKEY>
FCAUWCISADYVAP-UHFFFAOYSA-N

> <PUBCHEM_XLOGP3_AA>
6

> <PUBCHEM_EXACT_MASS>
479.29480563

> <PUBCHEM_MOLECULAR_FORMULA>
C29H38FN3O2

> <PUBCHEM_MOLECULAR_WEIGHT>
479.6

> <PUBCHEM_OPENEYE_CAN_SMILES>
CC1CCN(CC1)CCC2=CC=C(C=C2)OCCCN3CCC(CC3)C4=NOC5=C4C=CC(=C5)F

> <PUBCHEM_OPENEYE_ISO_SMILES>
CC1CCN(CC1)CCC2=CC=C(C=C2)OCCCN3CCC(CC3)C4=NOC5=C4C=CC(=C5)F

> <PUBCHEM_CACTVS_TPSA>
41.7

> <PUBCHEM_MONOISOTOPIC_WEIGHT>
479.29480563

> <PUBCHEM_TOTAL_CHARGE>
0

> <PUBCHEM_HEAVY_ATOM_COUNT>
35

> <PUBCHEM_ATOM_DEF_STEREO_COUNT>
0

> <PUBCHEM_ATOM_UDEF_STEREO_COUNT>
0

> <PUBCHEM_BOND_DEF_STEREO_COUNT>
0

> <PUBCHEM_BOND_UDEF_STEREO_COUNT>
0

> <PUBCHEM_ISOTOPIC_ATOM_COUNT>
0

> <PUBCHEM_COMPONENT_COUNT>
1

> <PUBCHEM_CACTVS_TAUTO_COUNT>
-1

> <PUBCHEM_COORDINATE_TYPE>
1
5
255

> <PUBCHEM_BONDANNOTATIONS>
18  22  8
2  25  8
2  6  8
22  25  8
22  27  8
25  28  8
26  29  8
26  30  8
27  32  8
28  33  8
29  34  8
30  35  8
31  34  8
31  35  8
32  33  8
6  18  8

$$$$
