9906978
  -OEChem-09292322222D

 46 48  0     1  0  0  0  0  0999 V2000
    3.4118   -6.2694    0.0000 Cl  0  0  0  0  0  0  0  0  0  0  0  0
    5.6439    6.2694    0.0000 F   0  0  0  0  0  0  0  0  0  0  0  0
    2.4608   -2.5784    0.0000 O   0  0  0  0  0  0  0  0  0  0  0  0
    6.5099    1.7694    0.0000 O   0  0  0  0  0  0  0  0  0  0  0  0
    3.9118   -0.7306    0.0000 N   0  0  3  0  0  0  0  0  0  0  0  0
    3.4118   -2.2694    0.0000 C   0  0  3  0  0  0  0  0  0  0  0  0
    3.1028   -1.3184    0.0000 C   0  0  0  0  0  0  0  0  0  0  0  0
    4.4118   -2.2694    0.0000 C   0  0  0  0  0  0  0  0  0  0  0  0
    4.7208   -1.3184    0.0000 C   0  0  0  0  0  0  0  0  0  0  0  0
    3.9118    0.2694    0.0000 C   0  0  0  0  0  0  0  0  0  0  0  0
    3.4118   -3.2694    0.0000 C   0  0  0  0  0  0  0  0  0  0  0  0
    4.7778    0.7694    0.0000 C   0  0  0  0  0  0  0  0  0  0  0  0
    2.5458   -3.7694    0.0000 C   0  0  0  0  0  0  0  0  0  0  0  0
    4.2778   -3.7694    0.0000 C   0  0  0  0  0  0  0  0  0  0  0  0
    4.7778    1.7694    0.0000 C   0  0  0  0  0  0  0  0  0  0  0  0
    2.5458   -4.7694    0.0000 C   0  0  0  0  0  0  0  0  0  0  0  0
    4.2778   -4.7694    0.0000 C   0  0  0  0  0  0  0  0  0  0  0  0
    5.6439    2.2694    0.0000 C   0  0  0  0  0  0  0  0  0  0  0  0
    3.4118   -5.2694    0.0000 C   0  0  0  0  0  0  0  0  0  0  0  0
    5.6439    3.2694    0.0000 C   0  0  0  0  0  0  0  0  0  0  0  0
    4.7778    3.7694    0.0000 C   0  0  0  0  0  0  0  0  0  0  0  0
    6.5099    3.7694    0.0000 C   0  0  0  0  0  0  0  0  0  0  0  0
    4.7778    4.7694    0.0000 C   0  0  0  0  0  0  0  0  0  0  0  0
    6.5099    4.7694    0.0000 C   0  0  0  0  0  0  0  0  0  0  0  0
    5.6439    5.2694    0.0000 C   0  0  0  0  0  0  0  0  0  0  0  0
    2.7928   -0.7814    0.0000 H   0  0  0  0  0  0  0  0  0  0  0  0
    2.5364   -1.5705    0.0000 H   0  0  0  0  0  0  0  0  0  0  0  0
    4.3470   -2.8860    0.0000 H   0  0  0  0  0  0  0  0  0  0  0  0
    5.0183   -2.3983    0.0000 H   0  0  0  0  0  0  0  0  0  0  0  0
    5.2872   -1.5705    0.0000 H   0  0  0  0  0  0  0  0  0  0  0  0
    5.0308   -0.7814    0.0000 H   0  0  0  0  0  0  0  0  0  0  0  0
    3.6998    0.8520    0.0000 H   0  0  0  0  0  0  0  0  0  0  0  0
    3.3012    0.1618    0.0000 H   0  0  0  0  0  0  0  0  0  0  0  0
    4.9899    0.1868    0.0000 H   0  0  0  0  0  0  0  0  0  0  0  0
    5.3884    0.8771    0.0000 H   0  0  0  0  0  0  0  0  0  0  0  0
    2.0000   -2.1636    0.0000 H   0  0  0  0  0  0  0  0  0  0  0  0
    2.0088   -3.4594    0.0000 H   0  0  0  0  0  0  0  0  0  0  0  0
    4.8148   -3.4594    0.0000 H   0  0  0  0  0  0  0  0  0  0  0  0
    4.5658    2.3520    0.0000 H   0  0  0  0  0  0  0  0  0  0  0  0
    4.1672    1.6618    0.0000 H   0  0  0  0  0  0  0  0  0  0  0  0
    2.0088   -5.0794    0.0000 H   0  0  0  0  0  0  0  0  0  0  0  0
    4.8148   -5.0794    0.0000 H   0  0  0  0  0  0  0  0  0  0  0  0
    4.2409    3.4594    0.0000 H   0  0  0  0  0  0  0  0  0  0  0  0
    7.0468    3.4594    0.0000 H   0  0  0  0  0  0  0  0  0  0  0  0
    4.2409    5.0794    0.0000 H   0  0  0  0  0  0  0  0  0  0  0  0
    7.0468    5.0794    0.0000 H   0  0  0  0  0  0  0  0  0  0  0  0
  1 19  1  0  0  0  0
  2 25  1  0  0  0  0
  3  6  1  0  0  0  0
  3 36  1  0  0  0  0
  4 18  2  0  0  0  0
  5  7  1  0  0  0  0
  5  9  1  0  0  0  0
  5 10  1  0  0  0  0
  6  7  1  0  0  0  0
  6  8  1  0  0  0  0
  6 11  1  0  0  0  0
  7 26  1  0  0  0  0
  7 27  1  0  0  0  0
  8  9  1  0  0  0  0
  8 28  1  0  0  0  0
  8 29  1  0  0  0  0
  9 30  1  0  0  0  0
  9 31  1  0  0  0  0
 10 12  1  0  0  0  0
 10 32  1  0  0  0  0
 10 33  1  0  0  0  0
 11 13  2  0  0  0  0
 11 14  1  0  0  0  0
 12 15  1  0  0  0  0
 12 34  1  0  0  0  0
 12 35  1  0  0  0  0
 13 16  1  0  0  0  0
 13 37  1  0  0  0  0
 14 17  2  0  0  0  0
 14 38  1  0  0  0  0
 15 18  1  0  0  0  0
 15 39  1  0  0  0  0
 15 40  1  0  0  0  0
 16 19  2  0  0  0  0
 16 41  1  0  0  0  0
 17 19  1  0  0  0  0
 17 42  1  0  0  0  0
 18 20  1  0  0  0  0
 20 21  2  0  0  0  0
 20 22  1  0  0  0  0
 21 23  1  0  0  0  0
 21 43  1  0  0  0  0
 22 24  2  0  0  0  0
 22 44  1  0  0  0  0
 23 25  2  0  0  0  0
 23 45  1  0  0  0  0
 24 25  1  0  0  0  0
 24 46  1  0  0  0  0
M  END
> <PUBCHEM_COMPOUND_CID>
9906978

> <PUBCHEM_COMPOUND_CANONICALIZED>
1

> <PUBCHEM_CACTVS_COMPLEXITY>
447

> <PUBCHEM_CACTVS_HBOND_ACCEPTOR>
4

> <PUBCHEM_CACTVS_HBOND_DONOR>
1

> <PUBCHEM_CACTVS_ROTATABLE_BOND>
6

> <PUBCHEM_CACTVS_SUBSKEYS>
AAADceB6MQAEAAAAAAAAAAAAAAAAAWAAAAAwYAAAAAAAAAABQAAAHwIACAAADEbBmCwwAIMAAgCIAqBSAAACAAAkBQAIiAEICsgKJjKBlxGEcQAmwAGYmYecyOCOhAAAAAAAAAAIAAAAAAAAAAAAAAAAAA==

> <PUBCHEM_IUPAC_OPENEYE_NAME>
4-[3-(4-chlorophenyl)-3-hydroxy-pyrrolidin-1-yl]-1-(4-fluorophenyl)butan-1-one

> <PUBCHEM_IUPAC_CAS_NAME>
4-[3-(4-chlorophenyl)-3-hydroxy-1-pyrrolidinyl]-1-(4-fluorophenyl)-1-butanone

> <PUBCHEM_IUPAC_NAME_MARKUP>
4-[3-(4-chlorophenyl)-3-hydroxypyrrolidin-1-yl]-1-(4-fluorophenyl)butan-1-one

> <PUBCHEM_IUPAC_NAME>
4-[3-(4-chlorophenyl)-3-hydroxypyrrolidin-1-yl]-1-(4-fluorophenyl)butan-1-one

> <PUBCHEM_IUPAC_SYSTEMATIC_NAME>
4-[3-(4-chlorophenyl)-3-oxidanyl-pyrrolidin-1-yl]-1-(4-fluorophenyl)butan-1-one

> <PUBCHEM_IUPAC_TRADITIONAL_NAME>
4-[3-(4-chlorophenyl)-3-hydroxy-pyrrolidino]-1-(4-fluorophenyl)butan-1-one

> <PUBCHEM_IUPAC_INCHI>
InChI=1S/C20H21ClFNO2/c21-17-7-5-16(6-8-17)20(25)11-13-23(14-20)12-1-2-19(24)15-3-9-18(22)10-4-15/h3-10,25H,1-2,11-14H2

> <PUBCHEM_IUPAC_INCHIKEY>
BETHXCLHMRGYBW-UHFFFAOYSA-N

> <PUBCHEM_XLOGP3>
2.9

> <PUBCHEM_EXACT_MASS>
361.1244848

> <PUBCHEM_MOLECULAR_FORMULA>
C20H21ClFNO2

> <PUBCHEM_MOLECULAR_WEIGHT>
361.8

> <PUBCHEM_OPENEYE_CAN_SMILES>
C1CN(CC1(C2=CC=C(C=C2)Cl)O)CCCC(=O)C3=CC=C(C=C3)F

> <PUBCHEM_OPENEYE_ISO_SMILES>
C1CN(CC1(C2=CC=C(C=C2)Cl)O)CCCC(=O)C3=CC=C(C=C3)F

> <PUBCHEM_CACTVS_TPSA>
40.5

> <PUBCHEM_MONOISOTOPIC_WEIGHT>
361.1244848

> <PUBCHEM_TOTAL_CHARGE>
0

> <PUBCHEM_HEAVY_ATOM_COUNT>
25

> <PUBCHEM_ATOM_DEF_STEREO_COUNT>
0

> <PUBCHEM_ATOM_UDEF_STEREO_COUNT>
1

> <PUBCHEM_BOND_DEF_STEREO_COUNT>
0

> <PUBCHEM_BOND_UDEF_STEREO_COUNT>
0

> <PUBCHEM_ISOTOPIC_ATOM_COUNT>
0

> <PUBCHEM_COMPONENT_COUNT>
1

> <PUBCHEM_CACTVS_TAUTO_COUNT>
-1

> <PUBCHEM_COORDINATE_TYPE>
1
5
255

> <PUBCHEM_BONDANNOTATIONS>
11  13  8
11  14  8
13  16  8
14  17  8
16  19  8
17  19  8
20  21  8
20  22  8
21  23  8
22  24  8
23  25  8
24  25  8
6  3  3

$$$$
