11282247
  -OEChem-09292322072D

 56 59  0     0  0  0  0  0  0999 V2000
    5.1350    5.9050    0.0000 Cl  0  0  0  0  0  0  0  0  0  0  0  0
    6.8671   -3.0950    0.0000 O   0  0  0  0  0  0  0  0  0  0  0  0
    4.2690    1.4050    0.0000 N   0  0  0  0  0  0  0  0  0  0  0  0
    5.1350   -4.0950    0.0000 N   0  0  0  0  0  0  0  0  0  0  0  0
    3.4030   -4.0950    0.0000 N   0  0  0  0  0  0  0  0  0  0  0  0
    2.5369   -2.5950    0.0000 N   0  0  0  0  0  0  0  0  0  0  0  0
    4.2690   -5.5950    0.0000 N   0  0  0  0  0  0  0  0  0  0  0  0
    4.2690   -2.5950    0.0000 C   0  0  0  0  0  0  0  0  0  0  0  0
    4.2690   -1.5950    0.0000 C   0  0  0  0  0  0  0  0  0  0  0  0
    5.1350   -3.0950    0.0000 C   0  0  0  0  0  0  0  0  0  0  0  0
    4.2690    0.4050    0.0000 C   0  0  0  0  0  0  0  0  0  0  0  0
    5.1350   -1.0950    0.0000 C   0  0  0  0  0  0  0  0  0  0  0  0
    3.4030   -1.0950    0.0000 C   0  0  0  0  0  0  0  0  0  0  0  0
    6.0010   -2.5950    0.0000 C   0  0  0  0  0  0  0  0  0  0  0  0
    5.1350    1.9050    0.0000 C   0  0  0  0  0  0  0  0  0  0  0  0
    5.1350   -0.0950    0.0000 C   0  0  0  0  0  0  0  0  0  0  0  0
    3.4030   -0.0950    0.0000 C   0  0  0  0  0  0  0  0  0  0  0  0
    3.4030   -3.0950    0.0000 C   0  0  0  0  0  0  0  0  0  0  0  0
    5.1350    2.9050    0.0000 C   0  0  0  0  0  0  0  0  0  0  0  0
    7.7331   -2.5950    0.0000 C   0  0  0  0  0  0  0  0  0  0  0  0
    8.5991   -3.0950    0.0000 C   0  0  0  0  0  0  0  0  0  0  0  0
    4.2690   -4.5950    0.0000 C   0  0  0  0  0  0  0  0  0  0  0  0
    6.0010    3.4050    0.0000 C   0  0  0  0  0  0  0  0  0  0  0  0
    4.2690    3.4050    0.0000 C   0  0  0  0  0  0  0  0  0  0  0  0
    8.5991   -4.0950    0.0000 C   0  0  0  0  0  0  0  0  0  0  0  0
    9.4651   -2.5950    0.0000 C   0  0  0  0  0  0  0  0  0  0  0  0
    6.0010    4.4050    0.0000 C   0  0  0  0  0  0  0  0  0  0  0  0
    4.2690    4.4050    0.0000 C   0  0  0  0  0  0  0  0  0  0  0  0
    5.1350    4.9050    0.0000 C   0  0  0  0  0  0  0  0  0  0  0  0
    9.4651   -4.5950    0.0000 C   0  0  0  0  0  0  0  0  0  0  0  0
   10.3312   -3.0950    0.0000 C   0  0  0  0  0  0  0  0  0  0  0  0
   10.3312   -4.0950    0.0000 C   0  0  0  0  0  0  0  0  0  0  0  0
    5.6720   -1.4050    0.0000 H   0  0  0  0  0  0  0  0  0  0  0  0
    2.8660   -1.4050    0.0000 H   0  0  0  0  0  0  0  0  0  0  0  0
    6.3996   -2.1200    0.0000 H   0  0  0  0  0  0  0  0  0  0  0  0
    5.6025   -2.1200    0.0000 H   0  0  0  0  0  0  0  0  0  0  0  0
    5.3471    1.3224    0.0000 H   0  0  0  0  0  0  0  0  0  0  0  0
    5.7456    2.0127    0.0000 H   0  0  0  0  0  0  0  0  0  0  0  0
    5.6720    0.2150    0.0000 H   0  0  0  0  0  0  0  0  0  0  0  0
    2.8660    0.2150    0.0000 H   0  0  0  0  0  0  0  0  0  0  0  0
    3.7320    1.7150    0.0000 H   0  0  0  0  0  0  0  0  0  0  0  0
    8.1316   -2.1200    0.0000 H   0  0  0  0  0  0  0  0  0  0  0  0
    7.3346   -2.1200    0.0000 H   0  0  0  0  0  0  0  0  0  0  0  0
    6.5380    3.0950    0.0000 H   0  0  0  0  0  0  0  0  0  0  0  0
    3.7320    3.0950    0.0000 H   0  0  0  0  0  0  0  0  0  0  0  0
    2.0000   -2.9050    0.0000 H   0  0  0  0  0  0  0  0  0  0  0  0
    2.5369   -1.9750    0.0000 H   0  0  0  0  0  0  0  0  0  0  0  0
    8.0622   -4.4050    0.0000 H   0  0  0  0  0  0  0  0  0  0  0  0
    9.4651   -1.9750    0.0000 H   0  0  0  0  0  0  0  0  0  0  0  0
    6.5380    4.7150    0.0000 H   0  0  0  0  0  0  0  0  0  0  0  0
    3.7320    4.7150    0.0000 H   0  0  0  0  0  0  0  0  0  0  0  0
    9.4651   -5.2150    0.0000 H   0  0  0  0  0  0  0  0  0  0  0  0
   10.8681   -2.7850    0.0000 H   0  0  0  0  0  0  0  0  0  0  0  0
    4.8059   -5.9050    0.0000 H   0  0  0  0  0  0  0  0  0  0  0  0
    3.7320   -5.9050    0.0000 H   0  0  0  0  0  0  0  0  0  0  0  0
   10.8681   -4.4050    0.0000 H   0  0  0  0  0  0  0  0  0  0  0  0
  1 29  1  0  0  0  0
  2 14  1  0  0  0  0
  2 20  1  0  0  0  0
  3 11  1  0  0  0  0
  3 15  1  0  0  0  0
  3 41  1  0  0  0  0
  4 10  1  0  0  0  0
  4 22  2  0  0  0  0
  5 18  2  0  0  0  0
  5 22  1  0  0  0  0
  6 18  1  0  0  0  0
  6 46  1  0  0  0  0
  6 47  1  0  0  0  0
  7 22  1  0  0  0  0
  7 54  1  0  0  0  0
  7 55  1  0  0  0  0
  8  9  1  0  0  0  0
  8 10  2  0  0  0  0
  8 18  1  0  0  0  0
  9 12  2  0  0  0  0
  9 13  1  0  0  0  0
 10 14  1  0  0  0  0
 11 16  2  0  0  0  0
 11 17  1  0  0  0  0
 12 16  1  0  0  0  0
 12 33  1  0  0  0  0
 13 17  2  0  0  0  0
 13 34  1  0  0  0  0
 14 35  1  0  0  0  0
 14 36  1  0  0  0  0
 15 19  1  0  0  0  0
 15 37  1  0  0  0  0
 15 38  1  0  0  0  0
 16 39  1  0  0  0  0
 17 40  1  0  0  0  0
 19 23  2  0  0  0  0
 19 24  1  0  0  0  0
 20 21  1  0  0  0  0
 20 42  1  0  0  0  0
 20 43  1  0  0  0  0
 21 25  2  0  0  0  0
 21 26  1  0  0  0  0
 23 27  1  0  0  0  0
 23 44  1  0  0  0  0
 24 28  2  0  0  0  0
 24 45  1  0  0  0  0
 25 30  1  0  0  0  0
 25 48  1  0  0  0  0
 26 31  2  0  0  0  0
 26 49  1  0  0  0  0
 27 29  2  0  0  0  0
 27 50  1  0  0  0  0
 28 29  1  0  0  0  0
 28 51  1  0  0  0  0
 30 32  2  0  0  0  0
 30 52  1  0  0  0  0
 31 32  1  0  0  0  0
 31 53  1  0  0  0  0
 32 56  1  0  0  0  0
M  END
> <PUBCHEM_COMPOUND_CID>
11282247

> <PUBCHEM_COMPOUND_CANONICALIZED>
1

> <PUBCHEM_CACTVS_COMPLEXITY>
532

> <PUBCHEM_CACTVS_HBOND_ACCEPTOR>
6

> <PUBCHEM_CACTVS_HBOND_DONOR>
3

> <PUBCHEM_CACTVS_ROTATABLE_BOND>
8

> <PUBCHEM_CACTVS_SUBSKEYS>
AAADceB7oAAEAAAAAAAAAAAAAAAAAAAAAAA8YMEAAAAAAAAB1AAAHgIQAAAADArhniYx8JbIFACgAyZiZASCgCkhB6AJmKA4bpiKLiLB+9mHNAhs0APY6CewwOAOjAAAAAAAAAAYAAAAAAAAAAAAAAAAAA==

> <PUBCHEM_IUPAC_OPENEYE_NAME>
6-(benzyloxymethyl)-5-[4-[(4-chlorophenyl)methylamino]phenyl]pyrimidine-2,4-diamine

> <PUBCHEM_IUPAC_CAS_NAME>
5-[4-[(4-chlorophenyl)methylamino]phenyl]-6-(phenylmethoxymethyl)pyrimidine-2,4-diamine

> <PUBCHEM_IUPAC_NAME_MARKUP>
5-[4-[(4-chlorophenyl)methylamino]phenyl]-6-(phenylmethoxymethyl)pyrimidine-2,4-diamine

> <PUBCHEM_IUPAC_NAME>
5-[4-[(4-chlorophenyl)methylamino]phenyl]-6-(phenylmethoxymethyl)pyrimidine-2,4-diamine

> <PUBCHEM_IUPAC_SYSTEMATIC_NAME>
5-[4-[(4-chlorophenyl)methylamino]phenyl]-6-(phenylmethoxymethyl)pyrimidine-2,4-diamine

> <PUBCHEM_IUPAC_TRADITIONAL_NAME>
(4-chlorobenzyl)-[4-[2,4-diamino-6-(benzoxymethyl)pyrimidin-5-yl]phenyl]amine

> <PUBCHEM_IUPAC_INCHI>
InChI=1S/C25H24ClN5O/c26-20-10-6-17(7-11-20)14-29-21-12-8-19(9-13-21)23-22(30-25(28)31-24(23)27)16-32-15-18-4-2-1-3-5-18/h1-13,29H,14-16H2,(H4,27,28,30,31)

> <PUBCHEM_IUPAC_INCHIKEY>
YHNPYJODGMGFSJ-UHFFFAOYSA-N

> <PUBCHEM_XLOGP3_AA>
4.4

> <PUBCHEM_EXACT_MASS>
445.1669381

> <PUBCHEM_MOLECULAR_FORMULA>
C25H24ClN5O

> <PUBCHEM_MOLECULAR_WEIGHT>
445.9

> <PUBCHEM_OPENEYE_CAN_SMILES>
C1=CC=C(C=C1)COCC2=C(C(=NC(=N2)N)N)C3=CC=C(C=C3)NCC4=CC=C(C=C4)Cl

> <PUBCHEM_OPENEYE_ISO_SMILES>
C1=CC=C(C=C1)COCC2=C(C(=NC(=N2)N)N)C3=CC=C(C=C3)NCC4=CC=C(C=C4)Cl

> <PUBCHEM_CACTVS_TPSA>
99.1

> <PUBCHEM_MONOISOTOPIC_WEIGHT>
445.1669381

> <PUBCHEM_TOTAL_CHARGE>
0

> <PUBCHEM_HEAVY_ATOM_COUNT>
32

> <PUBCHEM_ATOM_DEF_STEREO_COUNT>
0

> <PUBCHEM_ATOM_UDEF_STEREO_COUNT>
0

> <PUBCHEM_BOND_DEF_STEREO_COUNT>
0

> <PUBCHEM_BOND_UDEF_STEREO_COUNT>
0

> <PUBCHEM_ISOTOPIC_ATOM_COUNT>
0

> <PUBCHEM_COMPONENT_COUNT>
1

> <PUBCHEM_CACTVS_TAUTO_COUNT>
-1

> <PUBCHEM_COORDINATE_TYPE>
1
5
255

> <PUBCHEM_BONDANNOTATIONS>
11  16  8
11  17  8
12  16  8
13  17  8
19  23  8
19  24  8
21  25  8
21  26  8
23  27  8
24  28  8
25  30  8
26  31  8
27  29  8
28  29  8
30  32  8
31  32  8
4  10  8
4  22  8
5  18  8
5  22  8
8  10  8
8  18  8
9  12  8
9  13  8

$$$$
