118719806
  -OEChem-09292322362D

 63 66  0     0  0  0  0  0  0999 V2000
    4.9836    5.9032    0.0000 O   0  0  0  0  0  0  0  0  0  0  0  0
    4.6215    2.4581    0.0000 N   0  0  0  0  0  0  0  0  0  0  0  0
    3.8080    4.2852    0.0000 N   0  0  0  0  0  0  0  0  0  0  0  0
    3.7594   -2.5258    0.0000 N   0  0  0  0  0  0  0  0  0  0  0  0
    3.2594   -0.9870    0.0000 N   0  0  0  0  0  0  0  0  0  0  0  0
    2.9503   -1.9381    0.0000 N   0  0  0  0  0  0  0  0  0  0  0  0
    3.7594   -6.5258    0.0000 N   0  0  0  0  0  0  0  0  0  0  0  0
    5.2092    3.2671    0.0000 C   0  0  0  0  0  0  0  0  0  0  0  0
    3.6270    2.5626    0.0000 C   0  0  0  0  0  0  0  0  0  0  0  0
    4.8025    4.1807    0.0000 C   0  0  0  0  0  0  0  0  0  0  0  0
    3.2202    3.4762    0.0000 C   0  0  0  0  0  0  0  0  0  0  0  0
    5.0282    1.5446    0.0000 C   0  0  0  0  0  0  0  0  0  0  0  0
    4.4404    0.7356    0.0000 C   0  0  0  0  0  0  0  0  0  0  0  0
    3.4013    5.1988    0.0000 C   0  0  0  0  0  0  0  0  0  0  0  0
    4.8472   -0.1780    0.0000 C   0  0  0  0  0  0  0  0  0  0  0  0
    3.9890    6.0078    0.0000 C   0  0  0  0  0  0  0  0  0  0  0  0
    2.4067    5.3033    0.0000 C   0  0  0  0  0  0  0  0  0  0  0  0
    4.2594   -0.9870    0.0000 C   0  0  0  0  0  0  0  0  0  0  0  0
    3.5823    6.9213    0.0000 C   0  0  0  0  0  0  0  0  0  0  0  0
    2.0000    6.2168    0.0000 C   0  0  0  0  0  0  0  0  0  0  0  0
    4.5684   -1.9381    0.0000 C   0  0  0  0  0  0  0  0  0  0  0  0
    2.5878    7.0258    0.0000 C   0  0  0  0  0  0  0  0  0  0  0  0
    3.7594   -3.5258    0.0000 C   0  0  0  0  0  0  0  0  0  0  0  0
    5.5714    6.7123    0.0000 C   0  0  0  0  0  0  0  0  0  0  0  0
    2.8934   -4.0258    0.0000 C   0  0  0  0  0  0  0  0  0  0  0  0
    4.6254   -4.0258    0.0000 C   0  0  0  0  0  0  0  0  0  0  0  0
    3.7594   -5.5258    0.0000 C   0  0  0  0  0  0  0  0  0  0  0  0
    2.8934   -5.0258    0.0000 C   0  0  0  0  0  0  0  0  0  0  0  0
    4.6254   -5.0258    0.0000 C   0  0  0  0  0  0  0  0  0  0  0  0
    2.8934   -7.0258    0.0000 C   0  0  0  0  0  0  0  0  0  0  0  0
    4.6254   -7.0258    0.0000 C   0  0  0  0  0  0  0  0  0  0  0  0
    5.6399    2.8212    0.0000 H   0  0  0  0  0  0  0  0  0  0  0  0
    5.7233    3.6138    0.0000 H   0  0  0  0  0  0  0  0  0  0  0  0
    3.0254    2.4127    0.0000 H   0  0  0  0  0  0  0  0  0  0  0  0
    3.6702    1.9442    0.0000 H   0  0  0  0  0  0  0  0  0  0  0  0
    5.4041    4.3307    0.0000 H   0  0  0  0  0  0  0  0  0  0  0  0
    4.7593    4.7992    0.0000 H   0  0  0  0  0  0  0  0  0  0  0  0
    2.7895    3.9222    0.0000 H   0  0  0  0  0  0  0  0  0  0  0  0
    2.7062    3.1295    0.0000 H   0  0  0  0  0  0  0  0  0  0  0  0
    5.4589    1.0986    0.0000 H   0  0  0  0  0  0  0  0  0  0  0  0
    5.5422    1.8913    0.0000 H   0  0  0  0  0  0  0  0  0  0  0  0
    4.0097    1.1816    0.0000 H   0  0  0  0  0  0  0  0  0  0  0  0
    3.9264    0.3889    0.0000 H   0  0  0  0  0  0  0  0  0  0  0  0
    5.2778   -0.6240    0.0000 H   0  0  0  0  0  0  0  0  0  0  0  0
    5.3612    0.1687    0.0000 H   0  0  0  0  0  0  0  0  0  0  0  0
    2.0423    4.8017    0.0000 H   0  0  0  0  0  0  0  0  0  0  0  0
    3.9467    7.4229    0.0000 H   0  0  0  0  0  0  0  0  0  0  0  0
    1.3834    6.2816    0.0000 H   0  0  0  0  0  0  0  0  0  0  0  0
    5.1580   -2.1296    0.0000 H   0  0  0  0  0  0  0  0  0  0  0  0
    2.3356    7.5922    0.0000 H   0  0  0  0  0  0  0  0  0  0  0  0
    6.0729    6.3478    0.0000 H   0  0  0  0  0  0  0  0  0  0  0  0
    5.9358    7.2138    0.0000 H   0  0  0  0  0  0  0  0  0  0  0  0
    5.0698    7.0767    0.0000 H   0  0  0  0  0  0  0  0  0  0  0  0
    2.3564   -3.7158    0.0000 H   0  0  0  0  0  0  0  0  0  0  0  0
    5.1623   -3.7158    0.0000 H   0  0  0  0  0  0  0  0  0  0  0  0
    2.3564   -5.3358    0.0000 H   0  0  0  0  0  0  0  0  0  0  0  0
    5.1623   -5.3358    0.0000 H   0  0  0  0  0  0  0  0  0  0  0  0
    2.5833   -6.4889    0.0000 H   0  0  0  0  0  0  0  0  0  0  0  0
    2.3564   -7.3358    0.0000 H   0  0  0  0  0  0  0  0  0  0  0  0
    3.2034   -7.5628    0.0000 H   0  0  0  0  0  0  0  0  0  0  0  0
    4.3154   -7.5628    0.0000 H   0  0  0  0  0  0  0  0  0  0  0  0
    5.1623   -7.3358    0.0000 H   0  0  0  0  0  0  0  0  0  0  0  0
    4.9354   -6.4889    0.0000 H   0  0  0  0  0  0  0  0  0  0  0  0
  1 16  1  0  0  0  0
  1 24  1  0  0  0  0
  2  8  1  0  0  0  0
  2  9  1  0  0  0  0
  2 12  1  0  0  0  0
  3 10  1  0  0  0  0
  3 11  1  0  0  0  0
  3 14  1  0  0  0  0
  4  6  1  0  0  0  0
  4 21  1  0  0  0  0
  4 23  1  0  0  0  0
  5  6  2  0  0  0  0
  5 18  1  0  0  0  0
  7 27  1  0  0  0  0
  7 30  1  0  0  0  0
  7 31  1  0  0  0  0
  8 10  1  0  0  0  0
  8 32  1  0  0  0  0
  8 33  1  0  0  0  0
  9 11  1  0  0  0  0
  9 34  1  0  0  0  0
  9 35  1  0  0  0  0
 10 36  1  0  0  0  0
 10 37  1  0  0  0  0
 11 38  1  0  0  0  0
 11 39  1  0  0  0  0
 12 13  1  0  0  0  0
 12 40  1  0  0  0  0
 12 41  1  0  0  0  0
 13 15  1  0  0  0  0
 13 42  1  0  0  0  0
 13 43  1  0  0  0  0
 14 16  1  0  0  0  0
 14 17  2  0  0  0  0
 15 18  1  0  0  0  0
 15 44  1  0  0  0  0
 15 45  1  0  0  0  0
 16 19  2  0  0  0  0
 17 20  1  0  0  0  0
 17 46  1  0  0  0  0
 18 21  2  0  0  0  0
 19 22  1  0  0  0  0
 19 47  1  0  0  0  0
 20 22  2  0  0  0  0
 20 48  1  0  0  0  0
 21 49  1  0  0  0  0
 22 50  1  0  0  0  0
 23 25  2  0  0  0  0
 23 26  1  0  0  0  0
 24 51  1  0  0  0  0
 24 52  1  0  0  0  0
 24 53  1  0  0  0  0
 25 28  1  0  0  0  0
 25 54  1  0  0  0  0
 26 29  2  0  0  0  0
 26 55  1  0  0  0  0
 27 28  2  0  0  0  0
 27 29  1  0  0  0  0
 28 56  1  0  0  0  0
 29 57  1  0  0  0  0
 30 58  1  0  0  0  0
 30 59  1  0  0  0  0
 30 60  1  0  0  0  0
 31 61  1  0  0  0  0
 31 62  1  0  0  0  0
 31 63  1  0  0  0  0
M  END
> <PUBCHEM_COMPOUND_CID>
118719806

> <PUBCHEM_COMPOUND_CANONICALIZED>
1

> <PUBCHEM_CACTVS_COMPLEXITY>
518

> <PUBCHEM_CACTVS_HBOND_ACCEPTOR>
6

> <PUBCHEM_CACTVS_HBOND_DONOR>
0

> <PUBCHEM_CACTVS_ROTATABLE_BOND>
8

> <PUBCHEM_CACTVS_SUBSKEYS>
AAADcfB7oAAAAAAAAAAAAAAAAAAAAWAAAAA8YIAAAAAAAAAB0AAAHgAIAAAACAzBlgY+xpMIBACiATRnRACCDCQxsgAYmAA/fIgOZmLEsZuVMChkwBHY6AeQQAAAAACAAAAAEAAAAQAAAAAgAAAAAAAAAA==

> <PUBCHEM_IUPAC_OPENEYE_NAME>
4-[4-[3-[4-(2-methoxyphenyl)piperazin-1-yl]propyl]triazol-1-yl]-N,N-dimethyl-aniline

> <PUBCHEM_IUPAC_CAS_NAME>
4-[4-[3-[4-(2-methoxyphenyl)-1-piperazinyl]propyl]-1-triazolyl]-N,N-dimethylaniline

> <PUBCHEM_IUPAC_NAME_MARKUP>
4-[4-[3-[4-(2-methoxyphenyl)piperazin-1-yl]propyl]triazol-1-yl]-<I>N</I>,<I>N</I>-dimethylaniline

> <PUBCHEM_IUPAC_NAME>
4-[4-[3-[4-(2-methoxyphenyl)piperazin-1-yl]propyl]triazol-1-yl]-N,N-dimethylaniline

> <PUBCHEM_IUPAC_SYSTEMATIC_NAME>
4-[4-[3-[4-(2-methoxyphenyl)piperazin-1-yl]propyl]-1,2,3-triazol-1-yl]-N,N-dimethyl-aniline

> <PUBCHEM_IUPAC_TRADITIONAL_NAME>
[4-[4-[3-[4-(2-methoxyphenyl)piperazino]propyl]triazol-1-yl]phenyl]-dimethyl-amine

> <PUBCHEM_IUPAC_INCHI>
InChI=1S/C24H32N6O/c1-27(2)21-10-12-22(13-11-21)30-19-20(25-26-30)7-6-14-28-15-17-29(18-16-28)23-8-4-5-9-24(23)31-3/h4-5,8-13,19H,6-7,14-18H2,1-3H3

> <PUBCHEM_IUPAC_INCHIKEY>
XUIZPQCWJRMJBY-UHFFFAOYSA-N

> <PUBCHEM_XLOGP3_AA>
3.7

> <PUBCHEM_EXACT_MASS>
420.26375967

> <PUBCHEM_MOLECULAR_FORMULA>
C24H32N6O

> <PUBCHEM_MOLECULAR_WEIGHT>
420.6

> <PUBCHEM_OPENEYE_CAN_SMILES>
CN(C)C1=CC=C(C=C1)N2C=C(N=N2)CCCN3CCN(CC3)C4=CC=CC=C4OC

> <PUBCHEM_OPENEYE_ISO_SMILES>
CN(C)C1=CC=C(C=C1)N2C=C(N=N2)CCCN3CCN(CC3)C4=CC=CC=C4OC

> <PUBCHEM_CACTVS_TPSA>
49.7

> <PUBCHEM_MONOISOTOPIC_WEIGHT>
420.26375967

> <PUBCHEM_TOTAL_CHARGE>
0

> <PUBCHEM_HEAVY_ATOM_COUNT>
31

> <PUBCHEM_ATOM_DEF_STEREO_COUNT>
0

> <PUBCHEM_ATOM_UDEF_STEREO_COUNT>
0

> <PUBCHEM_BOND_DEF_STEREO_COUNT>
0

> <PUBCHEM_BOND_UDEF_STEREO_COUNT>
0

> <PUBCHEM_ISOTOPIC_ATOM_COUNT>
0

> <PUBCHEM_COMPONENT_COUNT>
1

> <PUBCHEM_CACTVS_TAUTO_COUNT>
-1

> <PUBCHEM_COORDINATE_TYPE>
1
5
255

> <PUBCHEM_BONDANNOTATIONS>
14  16  8
14  17  8
16  19  8
17  20  8
18  21  8
19  22  8
20  22  8
23  25  8
23  26  8
25  28  8
26  29  8
27  28  8
27  29  8
4  21  8
4  6  8
5  18  8
5  6  8

$$$$
