19881394
  -OEChem-09292322332D

 52 53  0     1  0  0  0  0  0999 V2000
    2.0000   -3.6900    0.0000 O   0  0  0  0  0  0  0  0  0  0  0  0
    4.5981    0.8100    0.0000 N   0  0  3  0  0  0  0  0  0  0  0  0
    3.7320    1.3100    0.0000 C   0  0  0  0  0  0  0  0  0  0  0  0
    4.5981   -0.1900    0.0000 C   0  0  0  0  0  0  0  0  0  0  0  0
    5.4641    1.3100    0.0000 C   0  0  0  0  0  0  0  0  0  0  0  0
    3.7320    2.3100    0.0000 C   0  0  0  0  0  0  0  0  0  0  0  0
    2.8660    2.8100    0.0000 C   0  0  0  0  0  0  0  0  0  0  0  0
    3.7320   -0.6900    0.0000 C   0  0  0  0  0  0  0  0  0  0  0  0
    5.4641    2.3100    0.0000 C   0  0  0  0  0  0  0  0  0  0  0  0
    2.8660    3.8100    0.0000 C   0  0  0  0  0  0  0  0  0  0  0  0
    3.7320   -1.6900    0.0000 C   0  0  0  0  0  0  0  0  0  0  0  0
    6.3301    2.8100    0.0000 C   0  0  0  0  0  0  0  0  0  0  0  0
    2.0000    4.3100    0.0000 C   0  0  0  0  0  0  0  0  0  0  0  0
    2.8660   -2.1900    0.0000 C   0  0  0  0  0  0  0  0  0  0  0  0
    4.5981   -2.1900    0.0000 C   0  0  0  0  0  0  0  0  0  0  0  0
    7.1962    2.3100    0.0000 C   0  0  0  0  0  0  0  0  0  0  0  0
    6.3301    3.8100    0.0000 C   0  0  0  0  0  0  0  0  0  0  0  0
    2.8660   -3.1900    0.0000 C   0  0  0  0  0  0  0  0  0  0  0  0
    4.5981   -3.1900    0.0000 C   0  0  0  0  0  0  0  0  0  0  0  0
    8.0622    2.8100    0.0000 C   0  0  0  0  0  0  0  0  0  0  0  0
    7.1962    4.3100    0.0000 C   0  0  0  0  0  0  0  0  0  0  0  0
    3.7320   -3.6900    0.0000 C   0  0  0  0  0  0  0  0  0  0  0  0
    8.0622    3.8100    0.0000 C   0  0  0  0  0  0  0  0  0  0  0  0
    3.1215    1.4177    0.0000 H   0  0  0  0  0  0  0  0  0  0  0  0
    3.5200    0.7274    0.0000 H   0  0  0  0  0  0  0  0  0  0  0  0
    4.8101   -0.7726    0.0000 H   0  0  0  0  0  0  0  0  0  0  0  0
    5.2087   -0.0823    0.0000 H   0  0  0  0  0  0  0  0  0  0  0  0
    5.6762    0.7274    0.0000 H   0  0  0  0  0  0  0  0  0  0  0  0
    6.0747    1.4177    0.0000 H   0  0  0  0  0  0  0  0  0  0  0  0
    4.3426    2.2023    0.0000 H   0  0  0  0  0  0  0  0  0  0  0  0
    3.9441    2.8926    0.0000 H   0  0  0  0  0  0  0  0  0  0  0  0
    2.2554    2.9177    0.0000 H   0  0  0  0  0  0  0  0  0  0  0  0
    2.6540    2.2274    0.0000 H   0  0  0  0  0  0  0  0  0  0  0  0
    3.5200   -0.1074    0.0000 H   0  0  0  0  0  0  0  0  0  0  0  0
    3.1215   -0.7977    0.0000 H   0  0  0  0  0  0  0  0  0  0  0  0
    5.2520    2.8926    0.0000 H   0  0  0  0  0  0  0  0  0  0  0  0
    4.8535    2.2023    0.0000 H   0  0  0  0  0  0  0  0  0  0  0  0
    3.4766    3.7023    0.0000 H   0  0  0  0  0  0  0  0  0  0  0  0
    3.0781    4.3926    0.0000 H   0  0  0  0  0  0  0  0  0  0  0  0
    2.3100    4.8469    0.0000 H   0  0  0  0  0  0  0  0  0  0  0  0
    1.4631    4.6200    0.0000 H   0  0  0  0  0  0  0  0  0  0  0  0
    1.6900    3.7731    0.0000 H   0  0  0  0  0  0  0  0  0  0  0  0
    2.3291   -1.8800    0.0000 H   0  0  0  0  0  0  0  0  0  0  0  0
    5.1350   -1.8800    0.0000 H   0  0  0  0  0  0  0  0  0  0  0  0
    7.1962    1.6900    0.0000 H   0  0  0  0  0  0  0  0  0  0  0  0
    5.7932    4.1200    0.0000 H   0  0  0  0  0  0  0  0  0  0  0  0
    5.1350   -3.5000    0.0000 H   0  0  0  0  0  0  0  0  0  0  0  0
    8.5991    2.5000    0.0000 H   0  0  0  0  0  0  0  0  0  0  0  0
    7.1962    4.9300    0.0000 H   0  0  0  0  0  0  0  0  0  0  0  0
    3.7320   -4.3100    0.0000 H   0  0  0  0  0  0  0  0  0  0  0  0
    8.5991    4.1200    0.0000 H   0  0  0  0  0  0  0  0  0  0  0  0
    2.0000   -4.3100    0.0000 H   0  0  0  0  0  0  0  0  0  0  0  0
  1 18  1  0  0  0  0
  1 52  1  0  0  0  0
  2  3  1  0  0  0  0
  2  4  1  0  0  0  0
  2  5  1  0  0  0  0
  3  6  1  0  0  0  0
  3 24  1  0  0  0  0
  3 25  1  0  0  0  0
  4  8  1  0  0  0  0
  4 26  1  0  0  0  0
  4 27  1  0  0  0  0
  5  9  1  0  0  0  0
  5 28  1  0  0  0  0
  5 29  1  0  0  0  0
  6  7  1  0  0  0  0
  6 30  1  0  0  0  0
  6 31  1  0  0  0  0
  7 10  1  0  0  0  0
  7 32  1  0  0  0  0
  7 33  1  0  0  0  0
  8 11  1  0  0  0  0
  8 34  1  0  0  0  0
  8 35  1  0  0  0  0
  9 12  1  0  0  0  0
  9 36  1  0  0  0  0
  9 37  1  0  0  0  0
 10 13  1  0  0  0  0
 10 38  1  0  0  0  0
 10 39  1  0  0  0  0
 11 14  2  0  0  0  0
 11 15  1  0  0  0  0
 12 16  2  0  0  0  0
 12 17  1  0  0  0  0
 13 40  1  0  0  0  0
 13 41  1  0  0  0  0
 13 42  1  0  0  0  0
 14 18  1  0  0  0  0
 14 43  1  0  0  0  0
 15 19  2  0  0  0  0
 15 44  1  0  0  0  0
 16 20  1  0  0  0  0
 16 45  1  0  0  0  0
 17 21  2  0  0  0  0
 17 46  1  0  0  0  0
 18 22  2  0  0  0  0
 19 22  1  0  0  0  0
 19 47  1  0  0  0  0
 20 23  2  0  0  0  0
 20 48  1  0  0  0  0
 21 23  1  0  0  0  0
 21 49  1  0  0  0  0
 22 50  1  0  0  0  0
 23 51  1  0  0  0  0
M  END
> <PUBCHEM_COMPOUND_CID>
19881394

> <PUBCHEM_COMPOUND_CANONICALIZED>
1

> <PUBCHEM_CACTVS_COMPLEXITY>
288

> <PUBCHEM_CACTVS_HBOND_ACCEPTOR>
2

> <PUBCHEM_CACTVS_HBOND_DONOR>
1

> <PUBCHEM_CACTVS_ROTATABLE_BOND>
10

> <PUBCHEM_CACTVS_SUBSKEYS>
AAADceB6IAAAAAAAAAAAAAAAAAAAAAAAAAAwYAAAAAAAAAABQAAAHgAACAAADATBmAQyBoMAAgCAAiBCAAACAAAgIAAIiAAOCIgIJiKCkROEcAAkwBGImAeQ0LIOAAABAAAAAAAAAAIAAAAAAAAAAAAAAA==

> <PUBCHEM_IUPAC_OPENEYE_NAME>
3-[2-[pentyl(2-phenylethyl)amino]ethyl]phenol

> <PUBCHEM_IUPAC_CAS_NAME>
3-[2-[pentyl(2-phenylethyl)amino]ethyl]phenol

> <PUBCHEM_IUPAC_NAME_MARKUP>
3-[2-[pentyl(2-phenylethyl)amino]ethyl]phenol

> <PUBCHEM_IUPAC_NAME>
3-[2-[pentyl(2-phenylethyl)amino]ethyl]phenol

> <PUBCHEM_IUPAC_SYSTEMATIC_NAME>
3-[2-[pentyl(2-phenylethyl)amino]ethyl]phenol

> <PUBCHEM_IUPAC_TRADITIONAL_NAME>
3-[2-[amyl(phenethyl)amino]ethyl]phenol

> <PUBCHEM_IUPAC_INCHI>
InChI=1S/C21H29NO/c1-2-3-7-15-22(16-13-19-9-5-4-6-10-19)17-14-20-11-8-12-21(23)18-20/h4-6,8-12,18,23H,2-3,7,13-17H2,1H3

> <PUBCHEM_IUPAC_INCHIKEY>
CRDPGPNGVQWYOK-UHFFFAOYSA-N

> <PUBCHEM_XLOGP3_AA>
5.6

> <PUBCHEM_EXACT_MASS>
311.224914549

> <PUBCHEM_MOLECULAR_FORMULA>
C21H29NO

> <PUBCHEM_MOLECULAR_WEIGHT>
311.5

> <PUBCHEM_OPENEYE_CAN_SMILES>
CCCCCN(CCC1=CC=CC=C1)CCC2=CC(=CC=C2)O

> <PUBCHEM_OPENEYE_ISO_SMILES>
CCCCCN(CCC1=CC=CC=C1)CCC2=CC(=CC=C2)O

> <PUBCHEM_CACTVS_TPSA>
23.5

> <PUBCHEM_MONOISOTOPIC_WEIGHT>
311.224914549

> <PUBCHEM_TOTAL_CHARGE>
0

> <PUBCHEM_HEAVY_ATOM_COUNT>
23

> <PUBCHEM_ATOM_DEF_STEREO_COUNT>
0

> <PUBCHEM_ATOM_UDEF_STEREO_COUNT>
0

> <PUBCHEM_BOND_DEF_STEREO_COUNT>
0

> <PUBCHEM_BOND_UDEF_STEREO_COUNT>
0

> <PUBCHEM_ISOTOPIC_ATOM_COUNT>
0

> <PUBCHEM_COMPONENT_COUNT>
1

> <PUBCHEM_CACTVS_TAUTO_COUNT>
-1

> <PUBCHEM_COORDINATE_TYPE>
1
5
255

> <PUBCHEM_BONDANNOTATIONS>
11  14  8
11  15  8
12  16  8
12  17  8
14  18  8
15  19  8
16  20  8
17  21  8
18  22  8
19  22  8
20  23  8
21  23  8

$$$$
