25070416
  -OEChem-09292322352D

 54 57  0     0  0  0  0  0  0999 V2000
   12.7619   -1.9744    0.0000 Cl  0  0  0  0  0  0  0  0  0  0  0  0
   13.7619   -3.7064    0.0000 Cl  0  0  0  0  0  0  0  0  0  0  0  0
    6.2619    2.3557    0.0000 O   0  0  0  0  0  0  0  0  0  0  0  0
    5.9674    4.3172    0.0000 O   0  0  0  0  0  0  0  0  0  0  0  0
    9.7619   -0.2423    0.0000 N   0  0  0  0  0  0  0  0  0  0  0  0
   10.7619   -1.9744    0.0000 N   0  0  0  0  0  0  0  0  0  0  0  0
    3.7320    1.8557    0.0000 N   0  0  0  0  0  0  0  0  0  0  0  0
    4.6783    1.5510    0.0000 N   0  0  0  0  0  0  0  0  0  0  0  0
    9.2619   -1.1084    0.0000 C   0  0  0  0  0  0  0  0  0  0  0  0
   10.7619   -0.2423    0.0000 C   0  0  0  0  0  0  0  0  0  0  0  0
    9.7619   -1.9744    0.0000 C   0  0  0  0  0  0  0  0  0  0  0  0
   11.2619   -1.1084    0.0000 C   0  0  0  0  0  0  0  0  0  0  0  0
    9.2619    0.6237    0.0000 C   0  0  0  0  0  0  0  0  0  0  0  0
    8.2619    0.6237    0.0000 C   0  0  0  0  0  0  0  0  0  0  0  0
   11.2619   -2.8404    0.0000 C   0  0  0  0  0  0  0  0  0  0  0  0
    7.7619    1.4897    0.0000 C   0  0  0  0  0  0  0  0  0  0  0  0
    6.7619    1.4897    0.0000 C   0  0  0  0  0  0  0  0  0  0  0  0
   12.2619   -2.8404    0.0000 C   0  0  0  0  0  0  0  0  0  0  0  0
   10.7619   -3.7064    0.0000 C   0  0  0  0  0  0  0  0  0  0  0  0
   12.7619   -3.7064    0.0000 C   0  0  0  0  0  0  0  0  0  0  0  0
   11.2619   -4.5725    0.0000 C   0  0  0  0  0  0  0  0  0  0  0  0
   12.2619   -4.5725    0.0000 C   0  0  0  0  0  0  0  0  0  0  0  0
    5.2619    2.3557    0.0000 C   0  0  0  0  0  0  0  0  0  0  0  0
    4.6783    3.1605    0.0000 C   0  0  0  0  0  0  0  0  0  0  0  0
    3.7320    2.8557    0.0000 C   0  0  0  0  0  0  0  0  0  0  0  0
    2.8660    3.3557    0.0000 C   0  0  0  0  0  0  0  0  0  0  0  0
    2.8660    1.3557    0.0000 C   0  0  0  0  0  0  0  0  0  0  0  0
    4.9889    4.1110    0.0000 C   0  0  0  0  0  0  0  0  0  0  0  0
    2.0000    2.8557    0.0000 C   0  0  0  0  0  0  0  0  0  0  0  0
    2.0000    1.8557    0.0000 C   0  0  0  0  0  0  0  0  0  0  0  0
    8.7869   -0.7098    0.0000 H   0  0  0  0  0  0  0  0  0  0  0  0
    8.7869   -1.5069    0.0000 H   0  0  0  0  0  0  0  0  0  0  0  0
   11.3445   -0.0303    0.0000 H   0  0  0  0  0  0  0  0  0  0  0  0
   10.6542    0.3682    0.0000 H   0  0  0  0  0  0  0  0  0  0  0  0
    9.1793   -2.1864    0.0000 H   0  0  0  0  0  0  0  0  0  0  0  0
    9.8695   -2.5850    0.0000 H   0  0  0  0  0  0  0  0  0  0  0  0
   11.7368   -1.5069    0.0000 H   0  0  0  0  0  0  0  0  0  0  0  0
   11.7368   -0.7098    0.0000 H   0  0  0  0  0  0  0  0  0  0  0  0
    9.8445    0.8357    0.0000 H   0  0  0  0  0  0  0  0  0  0  0  0
    9.1542    1.2343    0.0000 H   0  0  0  0  0  0  0  0  0  0  0  0
    7.6793    0.4116    0.0000 H   0  0  0  0  0  0  0  0  0  0  0  0
    8.3695    0.0131    0.0000 H   0  0  0  0  0  0  0  0  0  0  0  0
    8.3445    1.7018    0.0000 H   0  0  0  0  0  0  0  0  0  0  0  0
    7.6542    2.1003    0.0000 H   0  0  0  0  0  0  0  0  0  0  0  0
    6.1793    1.2777    0.0000 H   0  0  0  0  0  0  0  0  0  0  0  0
    6.8695    0.8791    0.0000 H   0  0  0  0  0  0  0  0  0  0  0  0
   10.1419   -3.7064    0.0000 H   0  0  0  0  0  0  0  0  0  0  0  0
   10.9519   -5.1094    0.0000 H   0  0  0  0  0  0  0  0  0  0  0  0
   12.5719   -5.1094    0.0000 H   0  0  0  0  0  0  0  0  0  0  0  0
    2.8660    3.9757    0.0000 H   0  0  0  0  0  0  0  0  0  0  0  0
    2.8660    0.7357    0.0000 H   0  0  0  0  0  0  0  0  0  0  0  0
    4.5749    4.5725    0.0000 H   0  0  0  0  0  0  0  0  0  0  0  0
    1.4631    3.1657    0.0000 H   0  0  0  0  0  0  0  0  0  0  0  0
    1.4631    1.5457    0.0000 H   0  0  0  0  0  0  0  0  0  0  0  0
  1 18  1  0  0  0  0
  2 20  1  0  0  0  0
  3 17  1  0  0  0  0
  3 23  1  0  0  0  0
  4 28  2  0  0  0  0
  5  9  1  0  0  0  0
  5 10  1  0  0  0  0
  5 13  1  0  0  0  0
  6 11  1  0  0  0  0
  6 12  1  0  0  0  0
  6 15  1  0  0  0  0
  7  8  1  0  0  0  0
  7 25  1  0  0  0  0
  7 27  1  0  0  0  0
  8 23  2  0  0  0  0
  9 11  1  0  0  0  0
  9 31  1  0  0  0  0
  9 32  1  0  0  0  0
 10 12  1  0  0  0  0
 10 33  1  0  0  0  0
 10 34  1  0  0  0  0
 11 35  1  0  0  0  0
 11 36  1  0  0  0  0
 12 37  1  0  0  0  0
 12 38  1  0  0  0  0
 13 14  1  0  0  0  0
 13 39  1  0  0  0  0
 13 40  1  0  0  0  0
 14 16  1  0  0  0  0
 14 41  1  0  0  0  0
 14 42  1  0  0  0  0
 15 18  2  0  0  0  0
 15 19  1  0  0  0  0
 16 17  1  0  0  0  0
 16 43  1  0  0  0  0
 16 44  1  0  0  0  0
 17 45  1  0  0  0  0
 17 46  1  0  0  0  0
 18 20  1  0  0  0  0
 19 21  2  0  0  0  0
 19 47  1  0  0  0  0
 20 22  2  0  0  0  0
 21 22  1  0  0  0  0
 21 48  1  0  0  0  0
 22 49  1  0  0  0  0
 23 24  1  0  0  0  0
 24 25  2  0  0  0  0
 24 28  1  0  0  0  0
 25 26  1  0  0  0  0
 26 29  2  0  0  0  0
 26 50  1  0  0  0  0
 27 30  2  0  0  0  0
 27 51  1  0  0  0  0
 28 52  1  0  0  0  0
 29 30  1  0  0  0  0
 29 53  1  0  0  0  0
 30 54  1  0  0  0  0
M  END
> <PUBCHEM_COMPOUND_CID>
25070416

> <PUBCHEM_COMPOUND_CANONICALIZED>
1

> <PUBCHEM_CACTVS_COMPLEXITY>
549

> <PUBCHEM_CACTVS_HBOND_ACCEPTOR>
5

> <PUBCHEM_CACTVS_HBOND_DONOR>
0

> <PUBCHEM_CACTVS_ROTATABLE_BOND>
8

> <PUBCHEM_CACTVS_SUBSKEYS>
AAADceB7sAAGAAAAAAAAAAAAAAAAAWAAAAA8WIAAAAAAAFgB8AAAHgIIAAAADArhniY8xLMIFACqAzx3xACSjCA1pyAY2mE8btgMZv7F99vevejm6BnI6Ue4yGCMAAAAAAIAABQAAAAABAAAKAAAAAAAAA==

> <PUBCHEM_IUPAC_OPENEYE_NAME>
2-[4-[4-(2,3-dichlorophenyl)piperazin-1-yl]butoxy]pyrazolo[1,5-a]pyridine-3-carbaldehyde

> <PUBCHEM_IUPAC_CAS_NAME>
2-[4-[4-(2,3-dichlorophenyl)-1-piperazinyl]butoxy]-3-pyrazolo[1,5-a]pyridinecarboxaldehyde

> <PUBCHEM_IUPAC_NAME_MARKUP>
2-[4-[4-(2,3-dichlorophenyl)piperazin-1-yl]butoxy]pyrazolo[1,5-a]pyridine-3-carbaldehyde

> <PUBCHEM_IUPAC_NAME>
2-[4-[4-(2,3-dichlorophenyl)piperazin-1-yl]butoxy]pyrazolo[1,5-a]pyridine-3-carbaldehyde

> <PUBCHEM_IUPAC_SYSTEMATIC_NAME>
2-[4-[4-[2,3-bis(chloranyl)phenyl]piperazin-1-yl]butoxy]pyrazolo[1,5-a]pyridine-3-carbaldehyde

> <PUBCHEM_IUPAC_TRADITIONAL_NAME>
2-[4-[4-(2,3-dichlorophenyl)piperazino]butoxy]pyrazolo[1,5-a]pyridine-3-carbaldehyde

> <PUBCHEM_IUPAC_INCHI>
InChI=1S/C22H24Cl2N4O2/c23-18-6-5-8-20(21(18)24)27-13-11-26(12-14-27)9-3-4-15-30-22-17(16-29)19-7-1-2-10-28(19)25-22/h1-2,5-8,10,16H,3-4,9,11-15H2

> <PUBCHEM_IUPAC_INCHIKEY>
NCIZVSJVBWAJQR-UHFFFAOYSA-N

> <PUBCHEM_XLOGP3_AA>
4.4

> <PUBCHEM_EXACT_MASS>
446.1276314

> <PUBCHEM_MOLECULAR_FORMULA>
C22H24Cl2N4O2

> <PUBCHEM_MOLECULAR_WEIGHT>
447.4

> <PUBCHEM_OPENEYE_CAN_SMILES>
C1CN(CCN1CCCCOC2=NN3C=CC=CC3=C2C=O)C4=C(C(=CC=C4)Cl)Cl

> <PUBCHEM_OPENEYE_ISO_SMILES>
C1CN(CCN1CCCCOC2=NN3C=CC=CC3=C2C=O)C4=C(C(=CC=C4)Cl)Cl

> <PUBCHEM_CACTVS_TPSA>
50.1

> <PUBCHEM_MONOISOTOPIC_WEIGHT>
446.1276314

> <PUBCHEM_TOTAL_CHARGE>
0

> <PUBCHEM_HEAVY_ATOM_COUNT>
30

> <PUBCHEM_ATOM_DEF_STEREO_COUNT>
0

> <PUBCHEM_ATOM_UDEF_STEREO_COUNT>
0

> <PUBCHEM_BOND_DEF_STEREO_COUNT>
0

> <PUBCHEM_BOND_UDEF_STEREO_COUNT>
0

> <PUBCHEM_ISOTOPIC_ATOM_COUNT>
0

> <PUBCHEM_COMPONENT_COUNT>
1

> <PUBCHEM_CACTVS_TAUTO_COUNT>
-1

> <PUBCHEM_COORDINATE_TYPE>
1
5
255

> <PUBCHEM_BONDANNOTATIONS>
15  18  8
15  19  8
18  20  8
19  21  8
20  22  8
21  22  8
23  24  8
24  25  8
25  26  8
26  29  8
27  30  8
29  30  8
7  25  8
7  27  8
7  8  8
8  23  8

$$$$
