46180259
  -OEChem-09292322482D

 47 50  0     1  0  0  0  0  0999 V2000
    8.1403    2.5314    0.0000 O   0  0  0  0  0  0  0  0  0  0  0  0
    5.5138    0.9968    0.0000 O   0  0  0  0  0  0  0  0  0  0  0  0
    8.9864   -2.0348    0.0000 N   0  0  3  0  0  0  0  0  0  0  0  0
    8.1282   -1.5378    0.0000 C   0  0  1  0  0  0  0  0  0  0  0  0
    8.1282   -0.5378    0.0000 C   0  0  0  0  0  0  0  0  0  0  0  0
    7.2622   -2.0378    0.0000 C   0  0  0  0  0  0  0  0  0  0  0  0
    9.0382   -0.0310    0.0000 C   0  0  0  0  0  0  0  0  0  0  0  0
    9.8519   -1.5506    0.0000 C   0  0  0  0  0  0  0  0  0  0  0  0
    7.2622   -0.0378    0.0000 C   0  0  0  0  0  0  0  0  0  0  0  0
    9.8775   -0.5592    0.0000 C   0  0  0  0  0  0  0  0  0  0  0  0
    6.3961   -1.5378    0.0000 C   0  0  0  0  0  0  0  0  0  0  0  0
    6.3961   -0.5378    0.0000 C   0  0  0  0  0  0  0  0  0  0  0  0
    9.0462    1.0106    0.0000 C   0  0  0  0  0  0  0  0  0  0  0  0
    8.9790   -3.0348    0.0000 C   0  0  0  0  0  0  0  0  0  0  0  0
    7.2461    1.0037    0.0000 C   0  0  0  0  0  0  0  0  0  0  0  0
    5.5022   -0.0032    0.0000 C   0  0  0  0  0  0  0  0  0  0  0  0
    5.5022   -2.0725    0.0000 C   0  0  0  0  0  0  0  0  0  0  0  0
    8.1441    1.5314    0.0000 C   0  0  0  0  0  0  0  0  0  0  0  0
    4.5961   -0.5170    0.0000 C   0  0  0  0  0  0  0  0  0  0  0  0
    4.5961   -1.5587    0.0000 C   0  0  0  0  0  0  0  0  0  0  0  0
    3.7320   -0.0137    0.0000 C   0  0  0  0  0  0  0  0  0  0  0  0
    2.8641   -0.5104    0.0000 C   0  0  0  0  0  0  0  0  0  0  0  0
    9.0044    3.0348    0.0000 C   0  0  0  0  0  0  0  0  0  0  0  0
    2.0000   -0.0070    0.0000 C   0  0  0  0  0  0  0  0  0  0  0  0
    8.1277   -2.3878    0.0000 H   0  0  0  0  0  0  0  0  0  0  0  0
    6.8636   -2.5128    0.0000 H   0  0  0  0  0  0  0  0  0  0  0  0
    7.6607   -2.5128    0.0000 H   0  0  0  0  0  0  0  0  0  0  0  0
   10.0536   -2.1369    0.0000 H   0  0  0  0  0  0  0  0  0  0  0  0
   10.4647   -1.4562    0.0000 H   0  0  0  0  0  0  0  0  0  0  0  0
   10.4846   -0.6851    0.0000 H   0  0  0  0  0  0  0  0  0  0  0  0
   10.1093    0.0158    0.0000 H   0  0  0  0  0  0  0  0  0  0  0  0
    9.5844    1.3185    0.0000 H   0  0  0  0  0  0  0  0  0  0  0  0
    8.3590   -3.0302    0.0000 H   0  0  0  0  0  0  0  0  0  0  0  0
    8.9744   -3.6547    0.0000 H   0  0  0  0  0  0  0  0  0  0  0  0
    9.5990   -3.0393    0.0000 H   0  0  0  0  0  0  0  0  0  0  0  0
    6.7056    1.3074    0.0000 H   0  0  0  0  0  0  0  0  0  0  0  0
    5.5094   -2.6925    0.0000 H   0  0  0  0  0  0  0  0  0  0  0  0
    4.0604   -1.8707    0.0000 H   0  0  0  0  0  0  0  0  0  0  0  0
    4.1324    0.4597    0.0000 H   0  0  0  0  0  0  0  0  0  0  0  0
    3.3353    0.4628    0.0000 H   0  0  0  0  0  0  0  0  0  0  0  0
    4.9804    1.3129    0.0000 H   0  0  0  0  0  0  0  0  0  0  0  0
    2.8617   -1.1304    0.0000 H   0  0  0  0  0  0  0  0  0  0  0  0
    9.3164    2.4990    0.0000 H   0  0  0  0  0  0  0  0  0  0  0  0
    9.5401    3.3468    0.0000 H   0  0  0  0  0  0  0  0  0  0  0  0
    8.6923    3.5705    0.0000 H   0  0  0  0  0  0  0  0  0  0  0  0
    2.0024    0.6130    0.0000 H   0  0  0  0  0  0  0  0  0  0  0  0
    1.4619   -0.3149    0.0000 H   0  0  0  0  0  0  0  0  0  0  0  0
  1 18  1  0  0  0  0
  1 23  1  0  0  0  0
  2 16  1  0  0  0  0
  2 41  1  0  0  0  0
  3  4  1  0  0  0  0
  3  8  1  0  0  0  0
  3 14  1  0  0  0  0
  4  5  1  0  0  0  0
  4  6  1  0  0  0  0
  4 25  1  1  0  0  0
  5  7  2  0  0  0  0
  5  9  1  0  0  0  0
  6 11  1  0  0  0  0
  6 26  1  0  0  0  0
  6 27  1  0  0  0  0
  7 10  1  0  0  0  0
  7 13  1  0  0  0  0
  8 10  1  0  0  0  0
  8 28  1  0  0  0  0
  8 29  1  0  0  0  0
  9 12  1  0  0  0  0
  9 15  2  0  0  0  0
 10 30  1  0  0  0  0
 10 31  1  0  0  0  0
 11 12  2  0  0  0  0
 11 17  1  0  0  0  0
 12 16  1  0  0  0  0
 13 18  2  0  0  0  0
 13 32  1  0  0  0  0
 14 33  1  0  0  0  0
 14 34  1  0  0  0  0
 14 35  1  0  0  0  0
 15 18  1  0  0  0  0
 15 36  1  0  0  0  0
 16 19  2  0  0  0  0
 17 20  2  0  0  0  0
 17 37  1  0  0  0  0
 19 20  1  0  0  0  0
 19 21  1  0  0  0  0
 20 38  1  0  0  0  0
 21 22  1  0  0  0  0
 21 39  1  0  0  0  0
 21 40  1  0  0  0  0
 22 24  2  0  0  0  0
 22 42  1  0  0  0  0
 23 43  1  0  0  0  0
 23 44  1  0  0  0  0
 23 45  1  0  0  0  0
 24 46  1  0  0  0  0
 24 47  1  0  0  0  0
M  END
> <PUBCHEM_COMPOUND_CID>
46180259

> <PUBCHEM_COMPOUND_CANONICALIZED>
1

> <PUBCHEM_CACTVS_COMPLEXITY>
467

> <PUBCHEM_CACTVS_HBOND_ACCEPTOR>
3

> <PUBCHEM_CACTVS_HBOND_DONOR>
1

> <PUBCHEM_CACTVS_ROTATABLE_BOND>
3

> <PUBCHEM_CACTVS_SUBSKEYS>
AAADceB6MAAAAAAAAAAAAAAAAAAAAAAAAAA8YMEAAAAAAADxQAAAHgAACAAADCzBmAYyBoMABgCAAiBCAACCCAAgIAAIiAAODIgMJiKGsRuEcChkwBGIuAeQ8P8O4AADAAAYAADQAAaAADQAAAAAAAAAAA==

> <PUBCHEM_IUPAC_OPENEYE_NAME>
(6aR)-10-allyl-2-methoxy-6-methyl-5,6,6a,7-tetrahydro-4H-dibenzo[de,g]quinolin-11-ol

> <PUBCHEM_IUPAC_CAS_NAME>
(6aR)-2-methoxy-6-methyl-10-prop-2-enyl-5,6,6a,7-tetrahydro-4H-dibenzo[de,g]quinolin-11-ol

> <PUBCHEM_IUPAC_NAME_MARKUP>
(6<I>a</I><I>R</I>)-2-methoxy-6-methyl-10-prop-2-enyl-5,6,6<I>a</I>,7-tetrahydro-4<I>H</I>-dibenzo[de,g]quinolin-11-ol

> <PUBCHEM_IUPAC_NAME>
(6aR)-2-methoxy-6-methyl-10-prop-2-enyl-5,6,6a,7-tetrahydro-4H-dibenzo[de,g]quinolin-11-ol

> <PUBCHEM_IUPAC_SYSTEMATIC_NAME>
(6aR)-2-methoxy-6-methyl-10-prop-2-enyl-5,6,6a,7-tetrahydro-4H-dibenzo[de,g]quinolin-11-ol

> <PUBCHEM_IUPAC_TRADITIONAL_NAME>
(6aR)-10-allyl-2-methoxy-6-methyl-5,6,6a,7-tetrahydro-4H-dibenzo[de,g]quinolin-11-ol

> <PUBCHEM_IUPAC_INCHI>
InChI=1S/C21H23NO2/c1-4-5-13-6-7-14-11-18-19-15(8-9-22(18)2)10-16(24-3)12-17(19)20(14)21(13)23/h4,6-7,10,12,18,23H,1,5,8-9,11H2,2-3H3/t18-/m1/s1

> <PUBCHEM_IUPAC_INCHIKEY>
NZGYOYHJUVTVOA-GOSISDBHSA-N

> <PUBCHEM_XLOGP3>
3.7

> <PUBCHEM_EXACT_MASS>
321.172878976

> <PUBCHEM_MOLECULAR_FORMULA>
C21H23NO2

> <PUBCHEM_MOLECULAR_WEIGHT>
321.4

> <PUBCHEM_OPENEYE_CAN_SMILES>
CN1CCC2=C3C1CC4=C(C3=CC(=C2)OC)C(=C(C=C4)CC=C)O

> <PUBCHEM_OPENEYE_ISO_SMILES>
CN1CCC2=C3[C@H]1CC4=C(C3=CC(=C2)OC)C(=C(C=C4)CC=C)O

> <PUBCHEM_CACTVS_TPSA>
32.7

> <PUBCHEM_MONOISOTOPIC_WEIGHT>
321.172878976

> <PUBCHEM_TOTAL_CHARGE>
0

> <PUBCHEM_HEAVY_ATOM_COUNT>
24

> <PUBCHEM_ATOM_DEF_STEREO_COUNT>
1

> <PUBCHEM_ATOM_UDEF_STEREO_COUNT>
0

> <PUBCHEM_BOND_DEF_STEREO_COUNT>
0

> <PUBCHEM_BOND_UDEF_STEREO_COUNT>
0

> <PUBCHEM_ISOTOPIC_ATOM_COUNT>
0

> <PUBCHEM_COMPONENT_COUNT>
1

> <PUBCHEM_CACTVS_TAUTO_COUNT>
-1

> <PUBCHEM_COORDINATE_TYPE>
1
5
255

> <PUBCHEM_BONDANNOTATIONS>
11  12  8
11  17  8
12  16  8
13  18  8
15  18  8
16  19  8
17  20  8
19  20  8
4  25  5
5  7  8
5  9  8
7  13  8
9  15  8

$$$$
