45260666
  -OEChem-09292322502D

 38 40  0     1  0  0  0  0  0999 V2000
    3.4470    0.0000    0.0000 Cl  0  0  0  0  0  0  0  0  0  0  0  0
    3.2880    6.5365    0.0000 O   0  0  0  0  0  0  0  0  0  0  0  0
    5.7470    5.7308    0.0000 O   0  0  0  0  0  0  0  0  0  0  0  0
    5.9011    8.2852    0.0000 N   0  0  0  0  0  0  0  0  0  0  0  0
    5.6423    7.3193    0.0000 C   0  0  0  0  0  0  0  0  0  0  0  0
    4.2696    6.7273    0.0000 C   0  0  3  0  0  0  0  0  0  0  0  0
    3.9276    7.6670    0.0000 C   0  0  0  0  0  0  0  0  0  0  0  0
    7.0413    6.8105    0.0000 C   0  0  0  0  0  0  0  0  0  0  0  0
    4.6645    9.1339    0.0000 C   0  0  0  0  0  0  0  0  0  0  0  0
    7.3001    7.7764    0.0000 C   0  0  0  0  0  0  0  0  0  0  0  0
    5.5306    9.6339    0.0000 C   0  0  0  0  0  0  0  0  0  0  0  0
    4.7544    5.8527    0.0000 C   0  0  0  0  0  0  0  0  0  0  0  0
    3.1661    5.5439    0.0000 C   0  0  0  0  0  0  0  0  0  0  0  0
    4.0724    5.1213    0.0000 C   0  0  0  0  0  0  0  0  0  0  0  0
    2.2915    5.0591    0.0000 C   0  0  0  0  0  0  0  0  0  0  0  0
    1.4343    5.5742    0.0000 C   0  0  0  0  0  0  0  0  0  0  0  0
    2.2740    4.0593    0.0000 C   0  0  0  0  0  0  0  0  0  0  0  0
    0.5597    5.0893    0.0000 C   0  0  0  0  0  0  0  0  0  0  0  0
    1.3994    3.5745    0.0000 C   0  0  0  0  0  0  0  0  0  0  0  0
    0.5423    4.0895    0.0000 C   0  0  0  0  0  0  0  0  0  0  0  0
    6.0477    7.7884    0.0000 H   0  0  0  0  0  0  0  0  0  0  0  0
    3.7333    8.2558    0.0000 H   0  0  0  0  0  0  0  0  0  0  0  0
    3.3418    7.4638    0.0000 H   0  0  0  0  0  0  0  0  0  0  0  0
    6.8463    6.2219    0.0000 H   0  0  0  0  0  0  0  0  0  0  0  0
    7.6352    6.6327    0.0000 H   0  0  0  0  0  0  0  0  0  0  0  0
    4.3598    9.6738    0.0000 H   0  0  0  0  0  0  0  0  0  0  0  0
    4.1216    8.8344    0.0000 H   0  0  0  0  0  0  0  0  0  0  0  0
    7.8940    7.5986    0.0000 H   0  0  0  0  0  0  0  0  0  0  0  0
    7.4950    8.3650    0.0000 H   0  0  0  0  0  0  0  0  0  0  0  0
    6.1123    9.8484    0.0000 H   0  0  0  0  0  0  0  0  0  0  0  0
    5.2673   10.1952    0.0000 H   0  0  0  0  0  0  0  0  0  0  0  0
    4.1907    4.5127    0.0000 H   0  0  0  0  0  0  0  0  0  0  0  0
    1.4452    6.1941    0.0000 H   0  0  0  0  0  0  0  0  0  0  0  0
    2.8055    3.7400    0.0000 H   0  0  0  0  0  0  0  0  0  0  0  0
    0.0283    5.4087    0.0000 H   0  0  0  0  0  0  0  0  0  0  0  0
    1.3886    2.9546    0.0000 H   0  0  0  0  0  0  0  0  0  0  0  0
    0.0000    3.7889    0.0000 H   0  0  0  0  0  0  0  0  0  0  0  0
    4.4470    0.0000    0.0000 H   0  0  0  0  0  0  0  0  0  0  0  0
  1 38  1  0  0  0  0
  2  6  1  0  0  0  0
  2 13  1  0  0  0  0
  3 12  2  0  0  0  0
  4  7  1  0  0  0  0
  4 10  1  0  0  0  0
  4 11  1  0  0  0  0
  5  6  1  0  0  0  0
  5  8  1  0  0  0  0
  5  9  1  0  0  0  0
  5 21  1  0  0  0  0
  6  7  1  0  0  0  0
  6 12  1  0  0  0  0
  7 22  1  0  0  0  0
  7 23  1  0  0  0  0
  8 10  1  0  0  0  0
  8 24  1  0  0  0  0
  8 25  1  0  0  0  0
  9 11  1  0  0  0  0
  9 26  1  0  0  0  0
  9 27  1  0  0  0  0
 10 28  1  0  0  0  0
 10 29  1  0  0  0  0
 11 30  1  0  0  0  0
 11 31  1  0  0  0  0
 12 14  1  0  0  0  0
 13 14  2  0  0  0  0
 13 15  1  0  0  0  0
 14 32  1  0  0  0  0
 15 16  2  0  0  0  0
 15 17  1  0  0  0  0
 16 18  1  0  0  0  0
 16 33  1  0  0  0  0
 17 19  2  0  0  0  0
 17 34  1  0  0  0  0
 18 20  2  0  0  0  0
 18 35  1  0  0  0  0
 19 20  1  0  0  0  0
 19 36  1  0  0  0  0
 20 37  1  0  0  0  0
M  END
> <PUBCHEM_COMPOUND_CID>
45260666

> <PUBCHEM_COMPOUND_CANONICALIZED>
1

> <PUBCHEM_CACTVS_COMPLEXITY>
417

> <PUBCHEM_CACTVS_HBOND_ACCEPTOR>
3

> <PUBCHEM_CACTVS_HBOND_DONOR>
1

> <PUBCHEM_CACTVS_ROTATABLE_BOND>
1

> <PUBCHEM_CACTVS_SUBSKEYS>
AAADceB6MAAEAAAAAAAAAAAAAAAAAQAAAAA8WLEAAAAAAAABAAAAHgAAAAAADUTBmAQwAIMABACIAqBSAAICCAAgIAAIiAFICMgKJjqAsRyHMAAkwAGYqQe4wSAOgAAAAAAAAAAAAAAAAAAAAAAAAAAAAA==

> <PUBCHEM_IUPAC_OPENEYE_NAME>
5-phenylspiro[furan-2,3'-quinuclidine]-3-one;hydrochloride

> <PUBCHEM_IUPAC_CAS_NAME>
5'-phenyl-3'-spiro[1-azabicyclo[2.2.2]octane-3,2'-furan]one;hydrochloride

> <PUBCHEM_IUPAC_NAME_MARKUP>
5&apos;-phenylspiro[1-azabicyclo[2.2.2]octane-3,2&apos;-furan]-3&apos;-one;hydrochloride

> <PUBCHEM_IUPAC_NAME>
5'-phenylspiro[1-azabicyclo[2.2.2]octane-3,2'-furan]-3'-one;hydrochloride

> <PUBCHEM_IUPAC_SYSTEMATIC_NAME>
5'-phenylspiro[1-azabicyclo[2.2.2]octane-3,2'-furan]-3'-one;hydrochloride

> <PUBCHEM_IUPAC_TRADITIONAL_NAME>
5-phenylspiro[furan-2,3'-quinuclidine]-3-one;hydrochloride

> <PUBCHEM_IUPAC_INCHI>
InChI=1S/C16H17NO2.ClH/c18-15-10-14(12-4-2-1-3-5-12)19-16(15)11-17-8-6-13(16)7-9-17;/h1-5,10,13H,6-9,11H2;1H

> <PUBCHEM_IUPAC_INCHIKEY>
WCTWJFKPDGBLPQ-UHFFFAOYSA-N

> <PUBCHEM_EXACT_MASS>
291.1026065

> <PUBCHEM_MOLECULAR_FORMULA>
C16H18ClNO2

> <PUBCHEM_MOLECULAR_WEIGHT>
291.77

> <PUBCHEM_OPENEYE_CAN_SMILES>
C1CN2CCC1C3(C2)C(=O)C=C(O3)C4=CC=CC=C4.Cl

> <PUBCHEM_OPENEYE_ISO_SMILES>
C1CN2CCC1C3(C2)C(=O)C=C(O3)C4=CC=CC=C4.Cl

> <PUBCHEM_CACTVS_TPSA>
29.5

> <PUBCHEM_MONOISOTOPIC_WEIGHT>
291.1026065

> <PUBCHEM_TOTAL_CHARGE>
0

> <PUBCHEM_HEAVY_ATOM_COUNT>
20

> <PUBCHEM_ATOM_DEF_STEREO_COUNT>
0

> <PUBCHEM_ATOM_UDEF_STEREO_COUNT>
1

> <PUBCHEM_BOND_DEF_STEREO_COUNT>
0

> <PUBCHEM_BOND_UDEF_STEREO_COUNT>
0

> <PUBCHEM_ISOTOPIC_ATOM_COUNT>
0

> <PUBCHEM_COMPONENT_COUNT>
2

> <PUBCHEM_CACTVS_TAUTO_COUNT>
-1

> <PUBCHEM_COORDINATE_TYPE>
1
5
255

> <PUBCHEM_BONDANNOTATIONS>
15  16  8
15  17  8
16  18  8
17  19  8
18  20  8
19  20  8
6  7  3

$$$$
