91937908
  -OEChem-09292322382D

 62 63  0     0  0  0  0  0  0999 V2000
   10.0021    6.6200    0.0000 Cl  0  0  0  0  0  0  0  0  0  0  0  0
    4.0010    8.1200    0.0000 O   0  0  0  0  0  0  0  0  0  0  0  0
    1.4030    2.6200    0.0000 O   0  0  0  0  0  0  0  0  0  0  0  0
    5.7331   10.1200    0.0000 O   0  0  0  0  0  0  0  0  0  0  0  0
    3.1350    5.6200    0.0000 N   0  0  0  0  0  0  0  0  0  0  0  0
    3.1350    3.6200    0.0000 N   0  0  0  0  0  0  0  0  0  0  0  0
    4.0010    5.1200    0.0000 C   0  0  0  0  0  0  0  0  0  0  0  0
    2.2690    5.1200    0.0000 C   0  0  0  0  0  0  0  0  0  0  0  0
    4.0010    4.1200    0.0000 C   0  0  0  0  0  0  0  0  0  0  0  0
    2.2690    4.1200    0.0000 C   0  0  0  0  0  0  0  0  0  0  0  0
    3.1350    6.6200    0.0000 C   0  0  0  0  0  0  0  0  0  0  0  0
    3.1350    2.6200    0.0000 C   0  0  0  0  0  0  0  0  0  0  0  0
    4.0010    7.1200    0.0000 C   0  0  0  0  0  0  0  0  0  0  0  0
    2.2690    2.1200    0.0000 C   0  0  0  0  0  0  0  0  0  0  0  0
    4.0010    2.1200    0.0000 C   0  0  0  0  0  0  0  0  0  0  0  0
    2.2690    1.1200    0.0000 C   0  0  0  0  0  0  0  0  0  0  0  0
    4.0010    1.1200    0.0000 C   0  0  0  0  0  0  0  0  0  0  0  0
    4.8671    8.6200    0.0000 C   0  0  0  0  0  0  0  0  0  0  0  0
    3.1350    0.6200    0.0000 C   0  0  0  0  0  0  0  0  0  0  0  0
    4.8671    9.6200    0.0000 C   0  0  0  0  0  0  0  0  0  0  0  0
    0.5369    2.1200    0.0000 C   0  0  0  0  0  0  0  0  0  0  0  0
    5.7331   11.1200    0.0000 C   0  0  0  0  0  0  0  0  0  0  0  0
    4.8671   11.6200    0.0000 C   0  0  0  0  0  0  0  0  0  0  0  0
    6.5991   11.6200    0.0000 C   0  0  0  0  0  0  0  0  0  0  0  0
    4.8671   12.6200    0.0000 C   0  0  0  0  0  0  0  0  0  0  0  0
    6.5991   12.6200    0.0000 C   0  0  0  0  0  0  0  0  0  0  0  0
    4.0010   11.1200    0.0000 C   0  0  0  0  0  0  0  0  0  0  0  0
    7.4651   11.1200    0.0000 C   0  0  0  0  0  0  0  0  0  0  0  0
    5.7331   13.1200    0.0000 C   0  0  0  0  0  0  0  0  0  0  0  0
    4.6116    5.0123    0.0000 H   0  0  0  0  0  0  0  0  0  0  0  0
    4.2131    5.7026    0.0000 H   0  0  0  0  0  0  0  0  0  0  0  0
    2.0569    5.7026    0.0000 H   0  0  0  0  0  0  0  0  0  0  0  0
    1.6584    5.0123    0.0000 H   0  0  0  0  0  0  0  0  0  0  0  0
    4.2131    3.5374    0.0000 H   0  0  0  0  0  0  0  0  0  0  0  0
    4.6116    4.2277    0.0000 H   0  0  0  0  0  0  0  0  0  0  0  0
    1.6584    4.2277    0.0000 H   0  0  0  0  0  0  0  0  0  0  0  0
    2.0569    3.5374    0.0000 H   0  0  0  0  0  0  0  0  0  0  0  0
    2.9230    7.2026    0.0000 H   0  0  0  0  0  0  0  0  0  0  0  0
    2.5244    6.5123    0.0000 H   0  0  0  0  0  0  0  0  0  0  0  0
    4.2131    6.5374    0.0000 H   0  0  0  0  0  0  0  0  0  0  0  0
    4.6116    7.2277    0.0000 H   0  0  0  0  0  0  0  0  0  0  0  0
    4.5380    2.4300    0.0000 H   0  0  0  0  0  0  0  0  0  0  0  0
    1.7320    0.8100    0.0000 H   0  0  0  0  0  0  0  0  0  0  0  0
    4.5380    0.8100    0.0000 H   0  0  0  0  0  0  0  0  0  0  0  0
    5.0791    8.0374    0.0000 H   0  0  0  0  0  0  0  0  0  0  0  0
    5.4776    8.7277    0.0000 H   0  0  0  0  0  0  0  0  0  0  0  0
    3.1350    0.0000    0.0000 H   0  0  0  0  0  0  0  0  0  0  0  0
    4.6550   10.2026    0.0000 H   0  0  0  0  0  0  0  0  0  0  0  0
    4.2565    9.5123    0.0000 H   0  0  0  0  0  0  0  0  0  0  0  0
    0.2269    2.6569    0.0000 H   0  0  0  0  0  0  0  0  0  0  0  0
    0.0000    1.8100    0.0000 H   0  0  0  0  0  0  0  0  0  0  0  0
    0.8469    1.5831    0.0000 H   0  0  0  0  0  0  0  0  0  0  0  0
    4.3301   12.9300    0.0000 H   0  0  0  0  0  0  0  0  0  0  0  0
    7.1360   12.9300    0.0000 H   0  0  0  0  0  0  0  0  0  0  0  0
    3.6910   11.6569    0.0000 H   0  0  0  0  0  0  0  0  0  0  0  0
    3.4641   10.8100    0.0000 H   0  0  0  0  0  0  0  0  0  0  0  0
    4.3110   10.5831    0.0000 H   0  0  0  0  0  0  0  0  0  0  0  0
    7.1551   10.5831    0.0000 H   0  0  0  0  0  0  0  0  0  0  0  0
    8.0021   10.8100    0.0000 H   0  0  0  0  0  0  0  0  0  0  0  0
    7.7751   11.6569    0.0000 H   0  0  0  0  0  0  0  0  0  0  0  0
    5.7331   13.7400    0.0000 H   0  0  0  0  0  0  0  0  0  0  0  0
   11.0021    6.6200    0.0000 H   0  0  0  0  0  0  0  0  0  0  0  0
  1 62  1  0  0  0  0
  2 13  1  0  0  0  0
  2 18  1  0  0  0  0
  3 14  1  0  0  0  0
  3 21  1  0  0  0  0
  4 20  1  0  0  0  0
  4 22  1  0  0  0  0
  5  7  1  0  0  0  0
  5  8  1  0  0  0  0
  5 11  1  0  0  0  0
  6  9  1  0  0  0  0
  6 10  1  0  0  0  0
  6 12  1  0  0  0  0
  7  9  1  0  0  0  0
  7 30  1  0  0  0  0
  7 31  1  0  0  0  0
  8 10  1  0  0  0  0
  8 32  1  0  0  0  0
  8 33  1  0  0  0  0
  9 34  1  0  0  0  0
  9 35  1  0  0  0  0
 10 36  1  0  0  0  0
 10 37  1  0  0  0  0
 11 13  1  0  0  0  0
 11 38  1  0  0  0  0
 11 39  1  0  0  0  0
 12 14  1  0  0  0  0
 12 15  2  0  0  0  0
 13 40  1  0  0  0  0
 13 41  1  0  0  0  0
 14 16  2  0  0  0  0
 15 17  1  0  0  0  0
 15 42  1  0  0  0  0
 16 19  1  0  0  0  0
 16 43  1  0  0  0  0
 17 19  2  0  0  0  0
 17 44  1  0  0  0  0
 18 20  1  0  0  0  0
 18 45  1  0  0  0  0
 18 46  1  0  0  0  0
 19 47  1  0  0  0  0
 20 48  1  0  0  0  0
 20 49  1  0  0  0  0
 21 50  1  0  0  0  0
 21 51  1  0  0  0  0
 21 52  1  0  0  0  0
 22 23  2  0  0  0  0
 22 24  1  0  0  0  0
 23 25  1  0  0  0  0
 23 27  1  0  0  0  0
 24 26  2  0  0  0  0
 24 28  1  0  0  0  0
 25 29  2  0  0  0  0
 25 53  1  0  0  0  0
 26 29  1  0  0  0  0
 26 54  1  0  0  0  0
 27 55  1  0  0  0  0
 27 56  1  0  0  0  0
 27 57  1  0  0  0  0
 28 58  1  0  0  0  0
 28 59  1  0  0  0  0
 28 60  1  0  0  0  0
 29 61  1  0  0  0  0
M  END
> <PUBCHEM_COMPOUND_CID>
91937908

> <PUBCHEM_COMPOUND_CANONICALIZED>
1

> <PUBCHEM_CACTVS_COMPLEXITY>
418

> <PUBCHEM_CACTVS_HBOND_ACCEPTOR>
5

> <PUBCHEM_CACTVS_HBOND_DONOR>
1

> <PUBCHEM_CACTVS_ROTATABLE_BOND>
9

> <PUBCHEM_CACTVS_SUBSKEYS>
AAADcfB7MAAEAAAAAAAAAAAAAAAAAAAAAAA8YIAAAAAAAAABQAAAHgAAAAAADAzhmAYyxoMABACAAiRCQACCCAAhIgAIiAAPbIgPZiLEsZuXOCjkwBHa6AeQwGAOAAACAAAIEAAAAAQAABAgAAAAAAAAAA==

> <PUBCHEM_IUPAC_OPENEYE_NAME>
1-[2-[2-(2,6-dimethylphenoxy)ethoxy]ethyl]-4-(2-methoxyphenyl)piperazine;hydrochloride

> <PUBCHEM_IUPAC_CAS_NAME>
1-[2-[2-(2,6-dimethylphenoxy)ethoxy]ethyl]-4-(2-methoxyphenyl)piperazine;hydrochloride

> <PUBCHEM_IUPAC_NAME_MARKUP>
1-[2-[2-(2,6-dimethylphenoxy)ethoxy]ethyl]-4-(2-methoxyphenyl)piperazine;hydrochloride

> <PUBCHEM_IUPAC_NAME>
1-[2-[2-(2,6-dimethylphenoxy)ethoxy]ethyl]-4-(2-methoxyphenyl)piperazine;hydrochloride

> <PUBCHEM_IUPAC_SYSTEMATIC_NAME>
1-[2-[2-(2,6-dimethylphenoxy)ethoxy]ethyl]-4-(2-methoxyphenyl)piperazine;hydrochloride

> <PUBCHEM_IUPAC_TRADITIONAL_NAME>
1-[2-[2-(2,6-dimethylphenoxy)ethoxy]ethyl]-4-(2-methoxyphenyl)piperazine;hydrochloride

> <PUBCHEM_IUPAC_INCHI>
InChI=1S/C23H32N2O3.ClH/c1-19-7-6-8-20(2)23(19)28-18-17-27-16-15-24-11-13-25(14-12-24)21-9-4-5-10-22(21)26-3;/h4-10H,11-18H2,1-3H3;1H

> <PUBCHEM_IUPAC_INCHIKEY>
NUBMGKAYXIYCOW-UHFFFAOYSA-N

> <PUBCHEM_EXACT_MASS>
420.2179706

> <PUBCHEM_MOLECULAR_FORMULA>
C23H33ClN2O3

> <PUBCHEM_MOLECULAR_WEIGHT>
421.0

> <PUBCHEM_OPENEYE_CAN_SMILES>
CC1=C(C(=CC=C1)C)OCCOCCN2CCN(CC2)C3=CC=CC=C3OC.Cl

> <PUBCHEM_OPENEYE_ISO_SMILES>
CC1=C(C(=CC=C1)C)OCCOCCN2CCN(CC2)C3=CC=CC=C3OC.Cl

> <PUBCHEM_CACTVS_TPSA>
34.2

> <PUBCHEM_MONOISOTOPIC_WEIGHT>
420.2179706

> <PUBCHEM_TOTAL_CHARGE>
0

> <PUBCHEM_HEAVY_ATOM_COUNT>
29

> <PUBCHEM_ATOM_DEF_STEREO_COUNT>
0

> <PUBCHEM_ATOM_UDEF_STEREO_COUNT>
0

> <PUBCHEM_BOND_DEF_STEREO_COUNT>
0

> <PUBCHEM_BOND_UDEF_STEREO_COUNT>
0

> <PUBCHEM_ISOTOPIC_ATOM_COUNT>
0

> <PUBCHEM_COMPONENT_COUNT>
2

> <PUBCHEM_CACTVS_TAUTO_COUNT>
-1

> <PUBCHEM_COORDINATE_TYPE>
1
5
255

> <PUBCHEM_BONDANNOTATIONS>
12  14  8
12  15  8
14  16  8
15  17  8
16  19  8
17  19  8
22  23  8
22  24  8
23  25  8
24  26  8
25  29  8
26  29  8

$$$$
