118709173
  -OEChem-09292322352D

126132  0     0  0  0  0  0  0999 V2000
    2.5981   -0.0000    0.0000 Cl  0  0  0  0  0  0  0  0  0  0  0  0
   14.5981    0.0000    0.0000 Cl  0  0  0  0  0  0  0  0  0  0  0  0
    2.8660   12.4641    0.0000 F   0  0  0  0  0  0  0  0  0  0  0  0
   10.8660  -12.4641    0.0000 F   0  0  0  0  0  0  0  0  0  0  0  0
    5.0981    2.5981    0.0000 O   0  0  0  0  0  0  0  0  0  0  0  0
   12.0981   -2.5981    0.0000 O   0  0  0  0  0  0  0  0  0  0  0  0
    6.5981    3.4641    0.0000 O   0  0  0  0  0  0  0  0  0  0  0  0
   10.5981   -3.4641    0.0000 O   0  0  0  0  0  0  0  0  0  0  0  0
    2.0000    7.9641    0.0000 O   0  0  0  0  0  0  0  0  0  0  0  0
   10.0000   -7.9641    0.0000 O   0  0  0  0  0  0  0  0  0  0  0  0
    4.5981    5.4641    0.0000 N   0  0  0  0  0  0  0  0  0  0  0  0
   12.5981   -5.4641    0.0000 N   0  0  0  0  0  0  0  0  0  0  0  0
    8.0981    0.8660    0.0000 N   0  0  0  0  0  0  0  0  0  0  0  0
    9.0981   -0.8660    0.0000 N   0  0  0  0  0  0  0  0  0  0  0  0
    4.5981    3.4641    0.0000 C   0  0  0  0  0  0  0  0  0  0  0  0
   12.5981   -3.4641    0.0000 C   0  0  0  0  0  0  0  0  0  0  0  0
    3.7320    3.9641    0.0000 C   0  0  0  0  0  0  0  0  0  0  0  0
    5.4641    3.9641    0.0000 C   0  0  0  0  0  0  0  0  0  0  0  0
   13.4641   -3.9641    0.0000 C   0  0  0  0  0  0  0  0  0  0  0  0
   11.7321   -3.9641    0.0000 C   0  0  0  0  0  0  0  0  0  0  0  0
    3.7320    4.9641    0.0000 C   0  0  0  0  0  0  0  0  0  0  0  0
    5.4641    4.9641    0.0000 C   0  0  0  0  0  0  0  0  0  0  0  0
   13.4641   -4.9641    0.0000 C   0  0  0  0  0  0  0  0  0  0  0  0
   11.7321   -4.9641    0.0000 C   0  0  0  0  0  0  0  0  0  0  0  0
    4.0981    2.5981    0.0000 C   0  0  0  0  0  0  0  0  0  0  0  0
   13.0981   -2.5981    0.0000 C   0  0  0  0  0  0  0  0  0  0  0  0
    4.5981    6.4641    0.0000 C   0  0  0  0  0  0  0  0  0  0  0  0
   12.5981   -6.4641    0.0000 C   0  0  0  0  0  0  0  0  0  0  0  0
    3.7320    6.9641    0.0000 C   0  0  0  0  0  0  0  0  0  0  0  0
   11.7321   -6.9641    0.0000 C   0  0  0  0  0  0  0  0  0  0  0  0
    9.5981    0.0000    0.0000 C   0  0  0  0  0  0  0  0  0  0  0  0
    9.0981    0.8660    0.0000 C   0  0  0  0  0  0  0  0  0  0  0  0
    8.0981   -0.8660    0.0000 C   0  0  0  0  0  0  0  0  0  0  0  0
    7.5981   -0.0000    0.0000 C   0  0  0  0  0  0  0  0  0  0  0  0
    7.5981    1.7320    0.0000 C   0  0  0  0  0  0  0  0  0  0  0  0
    9.5981   -1.7320    0.0000 C   0  0  0  0  0  0  0  0  0  0  0  0
    6.0981    2.5981    0.0000 C   0  0  0  0  0  0  0  0  0  0  0  0
   11.0981   -2.5981    0.0000 C   0  0  0  0  0  0  0  0  0  0  0  0
    6.5981    1.7320    0.0000 C   0  0  0  0  0  0  0  0  0  0  0  0
   10.5981   -1.7320    0.0000 C   0  0  0  0  0  0  0  0  0  0  0  0
    4.5981    1.7320    0.0000 C   0  0  0  0  0  0  0  0  0  0  0  0
   12.5981   -1.7320    0.0000 C   0  0  0  0  0  0  0  0  0  0  0  0
    3.0981    2.5981    0.0000 C   0  0  0  0  0  0  0  0  0  0  0  0
   14.0981   -2.5981    0.0000 C   0  0  0  0  0  0  0  0  0  0  0  0
    3.7320    7.9641    0.0000 C   0  0  0  0  0  0  0  0  0  0  0  0
   11.7321   -7.9641    0.0000 C   0  0  0  0  0  0  0  0  0  0  0  0
    4.0981    0.8660    0.0000 C   0  0  0  0  0  0  0  0  0  0  0  0
   13.0981   -0.8660    0.0000 C   0  0  0  0  0  0  0  0  0  0  0  0
    2.5981    1.7320    0.0000 C   0  0  0  0  0  0  0  0  0  0  0  0
   14.5981   -1.7320    0.0000 C   0  0  0  0  0  0  0  0  0  0  0  0
    3.0981    0.8660    0.0000 C   0  0  0  0  0  0  0  0  0  0  0  0
   14.0981   -0.8660    0.0000 C   0  0  0  0  0  0  0  0  0  0  0  0
    2.8660    8.4641    0.0000 C   0  0  0  0  0  0  0  0  0  0  0  0
   10.8660   -8.4641    0.0000 C   0  0  0  0  0  0  0  0  0  0  0  0
    2.8660    9.4641    0.0000 C   0  0  0  0  0  0  0  0  0  0  0  0
   10.8660   -9.4641    0.0000 C   0  0  0  0  0  0  0  0  0  0  0  0
    2.0000    9.9641    0.0000 C   0  0  0  0  0  0  0  0  0  0  0  0
   11.7321   -9.9641    0.0000 C   0  0  0  0  0  0  0  0  0  0  0  0
    3.7320    9.9641    0.0000 C   0  0  0  0  0  0  0  0  0  0  0  0
   10.0000   -9.9641    0.0000 C   0  0  0  0  0  0  0  0  0  0  0  0
    2.0000   10.9641    0.0000 C   0  0  0  0  0  0  0  0  0  0  0  0
   11.7321  -10.9641    0.0000 C   0  0  0  0  0  0  0  0  0  0  0  0
    3.7320   10.9641    0.0000 C   0  0  0  0  0  0  0  0  0  0  0  0
   10.0000  -10.9641    0.0000 C   0  0  0  0  0  0  0  0  0  0  0  0
    2.8660   11.4641    0.0000 C   0  0  0  0  0  0  0  0  0  0  0  0
   10.8660  -11.4641    0.0000 C   0  0  0  0  0  0  0  0  0  0  0  0
    3.1215    4.0718    0.0000 H   0  0  0  0  0  0  0  0  0  0  0  0
    3.5200    3.3815    0.0000 H   0  0  0  0  0  0  0  0  0  0  0  0
    5.6762    3.3815    0.0000 H   0  0  0  0  0  0  0  0  0  0  0  0
    6.0747    4.0718    0.0000 H   0  0  0  0  0  0  0  0  0  0  0  0
   14.0747   -4.0718    0.0000 H   0  0  0  0  0  0  0  0  0  0  0  0
   13.6762   -3.3815    0.0000 H   0  0  0  0  0  0  0  0  0  0  0  0
   11.5200   -3.3815    0.0000 H   0  0  0  0  0  0  0  0  0  0  0  0
   11.1215   -4.0718    0.0000 H   0  0  0  0  0  0  0  0  0  0  0  0
    3.5200    5.5467    0.0000 H   0  0  0  0  0  0  0  0  0  0  0  0
    3.1215    4.8564    0.0000 H   0  0  0  0  0  0  0  0  0  0  0  0
    6.0747    4.8564    0.0000 H   0  0  0  0  0  0  0  0  0  0  0  0
    5.6762    5.5467    0.0000 H   0  0  0  0  0  0  0  0  0  0  0  0
   13.6762   -5.5467    0.0000 H   0  0  0  0  0  0  0  0  0  0  0  0
   14.0747   -4.8564    0.0000 H   0  0  0  0  0  0  0  0  0  0  0  0
   11.1215   -4.8564    0.0000 H   0  0  0  0  0  0  0  0  0  0  0  0
   11.5200   -5.5467    0.0000 H   0  0  0  0  0  0  0  0  0  0  0  0
    5.2087    6.3564    0.0000 H   0  0  0  0  0  0  0  0  0  0  0  0
    4.8101    7.0467    0.0000 H   0  0  0  0  0  0  0  0  0  0  0  0
   12.8101   -7.0467    0.0000 H   0  0  0  0  0  0  0  0  0  0  0  0
   13.2087   -6.3564    0.0000 H   0  0  0  0  0  0  0  0  0  0  0  0
    3.1215    7.0718    0.0000 H   0  0  0  0  0  0  0  0  0  0  0  0
    3.5200    6.3815    0.0000 H   0  0  0  0  0  0  0  0  0  0  0  0
   11.5200   -6.3815    0.0000 H   0  0  0  0  0  0  0  0  0  0  0  0
   11.1215   -7.0718    0.0000 H   0  0  0  0  0  0  0  0  0  0  0  0
   10.0730    0.3985    0.0000 H   0  0  0  0  0  0  0  0  0  0  0  0
   10.0730   -0.3985    0.0000 H   0  0  0  0  0  0  0  0  0  0  0  0
    8.2057   -1.4766    0.0000 H   0  0  0  0  0  0  0  0  0  0  0  0
    7.5155   -1.0781    0.0000 H   0  0  0  0  0  0  0  0  0  0  0  0
    9.6807    1.0781    0.0000 H   0  0  0  0  0  0  0  0  0  0  0  0
    8.9904    1.4766    0.0000 H   0  0  0  0  0  0  0  0  0  0  0  0
    7.1231    0.3985    0.0000 H   0  0  0  0  0  0  0  0  0  0  0  0
    7.1231   -0.3985    0.0000 H   0  0  0  0  0  0  0  0  0  0  0  0
    8.1807    1.9441    0.0000 H   0  0  0  0  0  0  0  0  0  0  0  0
    7.4904    2.3426    0.0000 H   0  0  0  0  0  0  0  0  0  0  0  0
    9.0155   -1.9441    0.0000 H   0  0  0  0  0  0  0  0  0  0  0  0
    9.7057   -2.3426    0.0000 H   0  0  0  0  0  0  0  0  0  0  0  0
    6.0155    1.5200    0.0000 H   0  0  0  0  0  0  0  0  0  0  0  0
    6.7057    1.1215    0.0000 H   0  0  0  0  0  0  0  0  0  0  0  0
   11.1807   -1.5200    0.0000 H   0  0  0  0  0  0  0  0  0  0  0  0
   10.4904   -1.1215    0.0000 H   0  0  0  0  0  0  0  0  0  0  0  0
    5.2181    1.7320    0.0000 H   0  0  0  0  0  0  0  0  0  0  0  0
   11.9781   -1.7320    0.0000 H   0  0  0  0  0  0  0  0  0  0  0  0
    2.7881    3.1350    0.0000 H   0  0  0  0  0  0  0  0  0  0  0  0
   14.4081   -3.1350    0.0000 H   0  0  0  0  0  0  0  0  0  0  0  0
    4.3426    7.8564    0.0000 H   0  0  0  0  0  0  0  0  0  0  0  0
    3.9441    8.5467    0.0000 H   0  0  0  0  0  0  0  0  0  0  0  0
   11.9441   -8.5467    0.0000 H   0  0  0  0  0  0  0  0  0  0  0  0
   12.3426   -7.8564    0.0000 H   0  0  0  0  0  0  0  0  0  0  0  0
    4.4081    0.3291    0.0000 H   0  0  0  0  0  0  0  0  0  0  0  0
   12.7881   -0.3291    0.0000 H   0  0  0  0  0  0  0  0  0  0  0  0
    1.9781    1.7320    0.0000 H   0  0  0  0  0  0  0  0  0  0  0  0
   15.2181   -1.7320    0.0000 H   0  0  0  0  0  0  0  0  0  0  0  0
    1.4631    9.6541    0.0000 H   0  0  0  0  0  0  0  0  0  0  0  0
   12.2690   -9.6541    0.0000 H   0  0  0  0  0  0  0  0  0  0  0  0
    4.2690    9.6541    0.0000 H   0  0  0  0  0  0  0  0  0  0  0  0
    9.4631   -9.6541    0.0000 H   0  0  0  0  0  0  0  0  0  0  0  0
    1.4631   11.2741    0.0000 H   0  0  0  0  0  0  0  0  0  0  0  0
   12.2690  -11.2741    0.0000 H   0  0  0  0  0  0  0  0  0  0  0  0
    4.2690   11.2741    0.0000 H   0  0  0  0  0  0  0  0  0  0  0  0
    9.4631  -11.2741    0.0000 H   0  0  0  0  0  0  0  0  0  0  0  0
  1 51  1  0  0  0  0
  2 52  1  0  0  0  0
  3 65  1  0  0  0  0
  4 66  1  0  0  0  0
  5 15  1  0  0  0  0
  5 37  1  0  0  0  0
  6 16  1  0  0  0  0
  6 38  1  0  0  0  0
  7 37  2  0  0  0  0
  8 38  2  0  0  0  0
  9 53  2  0  0  0  0
 10 54  2  0  0  0  0
 11 21  1  0  0  0  0
 11 22  1  0  0  0  0
 11 27  1  0  0  0  0
 12 23  1  0  0  0  0
 12 24  1  0  0  0  0
 12 28  1  0  0  0  0
 13 32  1  0  0  0  0
 13 34  1  0  0  0  0
 13 35  1  0  0  0  0
 14 31  1  0  0  0  0
 14 33  1  0  0  0  0
 14 36  1  0  0  0  0
 15 17  1  0  0  0  0
 15 18  1  0  0  0  0
 15 25  1  0  0  0  0
 16 19  1  0  0  0  0
 16 20  1  0  0  0  0
 16 26  1  0  0  0  0
 17 21  1  0  0  0  0
 17 67  1  0  0  0  0
 17 68  1  0  0  0  0
 18 22  1  0  0  0  0
 18 69  1  0  0  0  0
 18 70  1  0  0  0  0
 19 23  1  0  0  0  0
 19 71  1  0  0  0  0
 19 72  1  0  0  0  0
 20 24  1  0  0  0  0
 20 73  1  0  0  0  0
 20 74  1  0  0  0  0
 21 75  1  0  0  0  0
 21 76  1  0  0  0  0
 22 77  1  0  0  0  0
 22 78  1  0  0  0  0
 23 79  1  0  0  0  0
 23 80  1  0  0  0  0
 24 81  1  0  0  0  0
 24 82  1  0  0  0  0
 25 41  2  0  0  0  0
 25 43  1  0  0  0  0
 26 42  2  0  0  0  0
 26 44  1  0  0  0  0
 27 29  1  0  0  0  0
 27 83  1  0  0  0  0
 27 84  1  0  0  0  0
 28 30  1  0  0  0  0
 28 85  1  0  0  0  0
 28 86  1  0  0  0  0
 29 45  1  0  0  0  0
 29 87  1  0  0  0  0
 29 88  1  0  0  0  0
 30 46  1  0  0  0  0
 30 89  1  0  0  0  0
 30 90  1  0  0  0  0
 31 32  1  0  0  0  0
 31 91  1  0  0  0  0
 31 92  1  0  0  0  0
 32 95  1  0  0  0  0
 32 96  1  0  0  0  0
 33 34  1  0  0  0  0
 33 93  1  0  0  0  0
 33 94  1  0  0  0  0
 34 97  1  0  0  0  0
 34 98  1  0  0  0  0
 35 39  1  0  0  0  0
 35 99  1  0  0  0  0
 35100  1  0  0  0  0
 36 40  1  0  0  0  0
 36101  1  0  0  0  0
 36102  1  0  0  0  0
 37 39  1  0  0  0  0
 38 40  1  0  0  0  0
 39103  1  0  0  0  0
 39104  1  0  0  0  0
 40105  1  0  0  0  0
 40106  1  0  0  0  0
 41 47  1  0  0  0  0
 41107  1  0  0  0  0
 42 48  1  0  0  0  0
 42108  1  0  0  0  0
 43 49  2  0  0  0  0
 43109  1  0  0  0  0
 44 50  2  0  0  0  0
 44110  1  0  0  0  0
 45 53  1  0  0  0  0
 45111  1  0  0  0  0
 45112  1  0  0  0  0
 46 54  1  0  0  0  0
 46113  1  0  0  0  0
 46114  1  0  0  0  0
 47 51  2  0  0  0  0
 47115  1  0  0  0  0
 48 52  2  0  0  0  0
 48116  1  0  0  0  0
 49 51  1  0  0  0  0
 49117  1  0  0  0  0
 50 52  1  0  0  0  0
 50118  1  0  0  0  0
 53 55  1  0  0  0  0
 54 56  1  0  0  0  0
 55 57  2  0  0  0  0
 55 59  1  0  0  0  0
 56 58  2  0  0  0  0
 56 60  1  0  0  0  0
 57 61  1  0  0  0  0
 57119  1  0  0  0  0
 58 62  1  0  0  0  0
 58120  1  0  0  0  0
 59 63  2  0  0  0  0
 59121  1  0  0  0  0
 60 64  2  0  0  0  0
 60122  1  0  0  0  0
 61 65  2  0  0  0  0
 61123  1  0  0  0  0
 62 66  2  0  0  0  0
 62124  1  0  0  0  0
 63 65  1  0  0  0  0
 63125  1  0  0  0  0
 64 66  1  0  0  0  0
 64126  1  0  0  0  0
M  END
> <PUBCHEM_COMPOUND_CID>
118709173

> <PUBCHEM_COMPOUND_CANONICALIZED>
1

> <PUBCHEM_CACTVS_COMPLEXITY>
1410

> <PUBCHEM_CACTVS_HBOND_ACCEPTOR>
12

> <PUBCHEM_CACTVS_HBOND_DONOR>
0

> <PUBCHEM_CACTVS_ROTATABLE_BOND>
22

> <PUBCHEM_CACTVS_SUBSKEYS>
AAADcfB/uYAGAAAAAAAAAAAAAAAAAAAAAAA8ePGCAAAAAAABVAAAHwIAAAAADEbBmCwwCIMABACIAqDSCAACAAAkBQAIiAEICsgIZjqBtxiWMQAmwAGIqYecyOCOhAAAAAAAAAAIAAAAAAAAAAAAAAAAAA==

> <PUBCHEM_IUPAC_OPENEYE_NAME>
[4-(4-chlorophenyl)-1-[4-(4-fluorophenyl)-4-oxo-butyl]-4-piperidyl] 3-[4-[3-[[4-(4-chlorophenyl)-1-[4-(4-fluorophenyl)-4-oxo-butyl]-4-piperidyl]oxy]-3-oxo-propyl]piperazin-1-yl]propanoate

> <PUBCHEM_IUPAC_CAS_NAME>
3-[4-[3-[[4-(4-chlorophenyl)-1-[4-(4-fluorophenyl)-4-oxobutyl]-4-piperidinyl]oxy]-3-oxopropyl]-1-piperazinyl]propanoic acid [4-(4-chlorophenyl)-1-[4-(4-fluorophenyl)-4-oxobutyl]-4-piperidinyl] ester

> <PUBCHEM_IUPAC_NAME_MARKUP>
[4-(4-chlorophenyl)-1-[4-(4-fluorophenyl)-4-oxobutyl]piperidin-4-yl] 3-[4-[3-[4-(4-chlorophenyl)-1-[4-(4-fluorophenyl)-4-oxobutyl]piperidin-4-yl]oxy-3-oxopropyl]piperazin-1-yl]propanoate

> <PUBCHEM_IUPAC_NAME>
[4-(4-chlorophenyl)-1-[4-(4-fluorophenyl)-4-oxobutyl]piperidin-4-yl] 3-[4-[3-[4-(4-chlorophenyl)-1-[4-(4-fluorophenyl)-4-oxobutyl]piperidin-4-yl]oxy-3-oxopropyl]piperazin-1-yl]propanoate

> <PUBCHEM_IUPAC_SYSTEMATIC_NAME>
[4-(4-chlorophenyl)-1-[4-(4-fluorophenyl)-4-oxidanylidene-butyl]piperidin-4-yl] 3-[4-[3-[4-(4-chlorophenyl)-1-[4-(4-fluorophenyl)-4-oxidanylidene-butyl]piperidin-4-yl]oxy-3-oxidanylidene-propyl]piperazin-1-yl]propanoate

> <PUBCHEM_IUPAC_TRADITIONAL_NAME>
3-[4-[3-[[4-(4-chlorophenyl)-1-[4-(4-fluorophenyl)-4-keto-butyl]-4-piperidyl]oxy]-3-keto-propyl]piperazino]propionic acid [4-(4-chlorophenyl)-1-[4-(4-fluorophenyl)-4-keto-butyl]-4-piperidyl] ester

> <PUBCHEM_IUPAC_INCHI>
InChI=1S/C52H60Cl2F2N4O6/c53-43-13-9-41(10-14-43)51(23-31-57(32-24-51)27-1-3-47(61)39-5-17-45(55)18-6-39)65-49(63)21-29-59-35-37-60(38-36-59)30-22-50(64)66-52(42-11-15-44(54)16-12-42)25-33-58(34-26-52)28-2-4-48(62)40-7-19-46(56)20-8-40/h5-20H,1-4,21-38H2

> <PUBCHEM_IUPAC_INCHIKEY>
BXOPFJXHIDYFEL-UHFFFAOYSA-N

> <PUBCHEM_XLOGP3_AA>
8.3

> <PUBCHEM_EXACT_MASS>
944.3857974

> <PUBCHEM_MOLECULAR_FORMULA>
C52H60Cl2F2N4O6

> <PUBCHEM_MOLECULAR_WEIGHT>
946.0

> <PUBCHEM_OPENEYE_CAN_SMILES>
C1CN(CCC1(C2=CC=C(C=C2)Cl)OC(=O)CCN3CCN(CC3)CCC(=O)OC4(CCN(CC4)CCCC(=O)C5=CC=C(C=C5)F)C6=CC=C(C=C6)Cl)CCCC(=O)C7=CC=C(C=C7)F

> <PUBCHEM_OPENEYE_ISO_SMILES>
C1CN(CCC1(C2=CC=C(C=C2)Cl)OC(=O)CCN3CCN(CC3)CCC(=O)OC4(CCN(CC4)CCCC(=O)C5=CC=C(C=C5)F)C6=CC=C(C=C6)Cl)CCCC(=O)C7=CC=C(C=C7)F

> <PUBCHEM_CACTVS_TPSA>
99.7

> <PUBCHEM_MONOISOTOPIC_WEIGHT>
944.3857974

> <PUBCHEM_TOTAL_CHARGE>
0

> <PUBCHEM_HEAVY_ATOM_COUNT>
66

> <PUBCHEM_ATOM_DEF_STEREO_COUNT>
0

> <PUBCHEM_ATOM_UDEF_STEREO_COUNT>
0

> <PUBCHEM_BOND_DEF_STEREO_COUNT>
0

> <PUBCHEM_BOND_UDEF_STEREO_COUNT>
0

> <PUBCHEM_ISOTOPIC_ATOM_COUNT>
0

> <PUBCHEM_COMPONENT_COUNT>
1

> <PUBCHEM_CACTVS_TAUTO_COUNT>
-1

> <PUBCHEM_COORDINATE_TYPE>
1
5
255

> <PUBCHEM_BONDANNOTATIONS>
25  41  8
25  43  8
26  42  8
26  44  8
41  47  8
42  48  8
43  49  8
44  50  8
47  51  8
48  52  8
49  51  8
50  52  8
55  57  8
55  59  8
56  58  8
56  60  8
57  61  8
58  62  8
59  63  8
60  64  8
61  65  8
62  66  8
63  65  8
64  66  8

$$$$
