164618773
  -OEChem-09292322022D

 65 68  0     1  0  0  0  0  0999 V2000
   10.2942    3.4330    0.0000 S   0  0  0  0  0  0  0  0  0  0  0  0
    2.8660   -4.4330    0.0000 O   0  0  0  0  0  0  0  0  0  0  0  0
   11.2942    3.4330    0.0000 O   0  0  0  0  0  0  0  0  0  0  0  0
    9.2942    3.4330    0.0000 O   0  0  0  0  0  0  0  0  0  0  0  0
    5.9641   -1.0670    0.0000 N   0  0  0  0  0  0  0  0  0  0  0  0
   10.2942    2.4330    0.0000 N   0  0  0  0  0  0  0  0  0  0  0  0
    5.0981   -2.5670    0.0000 C   0  0  3  0  0  0  0  0  0  0  0  0
    4.5981   -3.4330    0.0000 C   0  0  3  0  0  0  0  0  0  0  0  0
    4.0981   -2.5670    0.0000 C   0  0  0  0  0  0  0  0  0  0  0  0
    5.9641   -2.0670    0.0000 C   0  0  0  0  0  0  0  0  0  0  0  0
    4.5981   -4.4330    0.0000 C   0  0  0  0  0  0  0  0  0  0  0  0
    7.6962    0.9330    0.0000 C   0  0  0  0  0  0  0  0  0  0  0  0
    6.8301    0.4330    0.0000 C   0  0  0  0  0  0  0  0  0  0  0  0
    8.5622    0.4330    0.0000 C   0  0  0  0  0  0  0  0  0  0  0  0
    7.6962    1.9330    0.0000 C   0  0  0  0  0  0  0  0  0  0  0  0
    6.8301   -0.5670    0.0000 C   0  0  0  0  0  0  0  0  0  0  0  0
    9.4282    1.9330    0.0000 C   0  0  0  0  0  0  0  0  0  0  0  0
    9.4282    0.9330    0.0000 C   0  0  0  0  0  0  0  0  0  0  0  0
    8.5622    2.4330    0.0000 C   0  0  0  0  0  0  0  0  0  0  0  0
    3.7320   -4.9330    0.0000 C   0  0  0  0  0  0  0  0  0  0  0  0
    5.4641   -4.9330    0.0000 C   0  0  0  0  0  0  0  0  0  0  0  0
    3.7320   -5.9330    0.0000 C   0  0  0  0  0  0  0  0  0  0  0  0
    5.4641   -5.9330    0.0000 C   0  0  0  0  0  0  0  0  0  0  0  0
    4.5981   -6.4330    0.0000 C   0  0  0  0  0  0  0  0  0  0  0  0
   10.2942    4.4330    0.0000 C   0  0  0  0  0  0  0  0  0  0  0  0
    2.0000   -4.9330    0.0000 C   0  0  0  0  0  0  0  0  0  0  0  0
    9.4282    4.9330    0.0000 C   0  0  0  0  0  0  0  0  0  0  0  0
   11.1603    4.9330    0.0000 C   0  0  0  0  0  0  0  0  0  0  0  0
    9.4282    5.9330    0.0000 C   0  0  0  0  0  0  0  0  0  0  0  0
   11.1603    5.9330    0.0000 C   0  0  0  0  0  0  0  0  0  0  0  0
   10.2942    6.4330    0.0000 C   0  0  0  0  0  0  0  0  0  0  0  0
    4.9376   -1.9681    0.0000 H   0  0  0  0  0  0  0  0  0  0  0  0
    5.1970   -3.5935    0.0000 H   0  0  0  0  0  0  0  0  0  0  0  0
    3.9904   -1.9564    0.0000 H   0  0  0  0  0  0  0  0  0  0  0  0
    3.5155   -2.7790    0.0000 H   0  0  0  0  0  0  0  0  0  0  0  0
    6.1762   -2.6496    0.0000 H   0  0  0  0  0  0  0  0  0  0  0  0
    6.5747   -1.9593    0.0000 H   0  0  0  0  0  0  0  0  0  0  0  0
    7.1592    1.2430    0.0000 H   0  0  0  0  0  0  0  0  0  0  0  0
    5.4272   -0.7570    0.0000 H   0  0  0  0  0  0  0  0  0  0  0  0
    6.6181    1.0156    0.0000 H   0  0  0  0  0  0  0  0  0  0  0  0
    6.2196    0.3254    0.0000 H   0  0  0  0  0  0  0  0  0  0  0  0
    8.1636   -0.0419    0.0000 H   0  0  0  0  0  0  0  0  0  0  0  0
    8.9607   -0.0419    0.0000 H   0  0  0  0  0  0  0  0  0  0  0  0
    7.4841    2.5156    0.0000 H   0  0  0  0  0  0  0  0  0  0  0  0
    7.0856    1.8254    0.0000 H   0  0  0  0  0  0  0  0  0  0  0  0
    7.0422   -1.1496    0.0000 H   0  0  0  0  0  0  0  0  0  0  0  0
    7.4407   -0.4593    0.0000 H   0  0  0  0  0  0  0  0  0  0  0  0
    9.9651    1.6230    0.0000 H   0  0  0  0  0  0  0  0  0  0  0  0
    9.6403    0.3504    0.0000 H   0  0  0  0  0  0  0  0  0  0  0  0
   10.0388    1.0407    0.0000 H   0  0  0  0  0  0  0  0  0  0  0  0
    8.9607    2.9080    0.0000 H   0  0  0  0  0  0  0  0  0  0  0  0
    8.1636    2.9080    0.0000 H   0  0  0  0  0  0  0  0  0  0  0  0
    6.0010   -4.6230    0.0000 H   0  0  0  0  0  0  0  0  0  0  0  0
   10.8312    2.1230    0.0000 H   0  0  0  0  0  0  0  0  0  0  0  0
    3.1951   -6.2430    0.0000 H   0  0  0  0  0  0  0  0  0  0  0  0
    6.0010   -6.2430    0.0000 H   0  0  0  0  0  0  0  0  0  0  0  0
    4.5981   -7.0530    0.0000 H   0  0  0  0  0  0  0  0  0  0  0  0
    1.6900   -4.3961    0.0000 H   0  0  0  0  0  0  0  0  0  0  0  0
    1.4631   -5.2430    0.0000 H   0  0  0  0  0  0  0  0  0  0  0  0
    2.3100   -5.4700    0.0000 H   0  0  0  0  0  0  0  0  0  0  0  0
    8.8913    4.6230    0.0000 H   0  0  0  0  0  0  0  0  0  0  0  0
   11.6972    4.6230    0.0000 H   0  0  0  0  0  0  0  0  0  0  0  0
    8.8913    6.2430    0.0000 H   0  0  0  0  0  0  0  0  0  0  0  0
   11.6972    6.2430    0.0000 H   0  0  0  0  0  0  0  0  0  0  0  0
   10.2942    7.0530    0.0000 H   0  0  0  0  0  0  0  0  0  0  0  0
  1  3  2  0  0  0  0
  1  4  2  0  0  0  0
  1  6  1  0  0  0  0
  1 25  1  0  0  0  0
  2 20  1  0  0  0  0
  2 26  1  0  0  0  0
  5 10  1  0  0  0  0
  5 16  1  0  0  0  0
  5 39  1  0  0  0  0
  6 17  1  0  0  0  0
  6 54  1  0  0  0  0
  7  8  1  0  0  0  0
  7  9  1  0  0  0  0
  7 10  1  0  0  0  0
  7 32  1  0  0  0  0
  8  9  1  0  0  0  0
  8 11  1  0  0  0  0
  8 33  1  0  0  0  0
  9 34  1  0  0  0  0
  9 35  1  0  0  0  0
 10 36  1  0  0  0  0
 10 37  1  0  0  0  0
 11 20  1  0  0  0  0
 11 21  2  0  0  0  0
 12 13  1  0  0  0  0
 12 14  1  0  0  0  0
 12 15  1  0  0  0  0
 12 38  1  0  0  0  0
 13 16  1  0  0  0  0
 13 40  1  0  0  0  0
 13 41  1  0  0  0  0
 14 18  1  0  0  0  0
 14 42  1  0  0  0  0
 14 43  1  0  0  0  0
 15 19  1  0  0  0  0
 15 44  1  0  0  0  0
 15 45  1  0  0  0  0
 16 46  1  0  0  0  0
 16 47  1  0  0  0  0
 17 18  1  0  0  0  0
 17 19  1  0  0  0  0
 17 48  1  0  0  0  0
 18 49  1  0  0  0  0
 18 50  1  0  0  0  0
 19 51  1  0  0  0  0
 19 52  1  0  0  0  0
 20 22  2  0  0  0  0
 21 23  1  0  0  0  0
 21 53  1  0  0  0  0
 22 24  1  0  0  0  0
 22 55  1  0  0  0  0
 23 24  2  0  0  0  0
 23 56  1  0  0  0  0
 24 57  1  0  0  0  0
 25 27  2  0  0  0  0
 25 28  1  0  0  0  0
 26 58  1  0  0  0  0
 26 59  1  0  0  0  0
 26 60  1  0  0  0  0
 27 29  1  0  0  0  0
 27 61  1  0  0  0  0
 28 30  2  0  0  0  0
 28 62  1  0  0  0  0
 29 31  2  0  0  0  0
 29 63  1  0  0  0  0
 30 31  1  0  0  0  0
 30 64  1  0  0  0  0
 31 65  1  0  0  0  0
M  END
> <PUBCHEM_COMPOUND_CID>
164618773

> <PUBCHEM_COMPOUND_CANONICALIZED>
1

> <PUBCHEM_CACTVS_COMPLEXITY>
636

> <PUBCHEM_CACTVS_HBOND_ACCEPTOR>
5

> <PUBCHEM_CACTVS_HBOND_DONOR>
2

> <PUBCHEM_CACTVS_ROTATABLE_BOND>
10

> <PUBCHEM_CACTVS_SUBSKEYS>
AAADcfB7MABAAAAAAAAAAAAAGAAAAAAAAAAwYMAAAAAAAAABQAAAHgQQQAAADSzB2AYyB4LABAKAAiBCAHBCCBAgIAAIiJgOCIgMJiKEsRqEMCAk0BGIqAeQ0OIOgAAAAAAIAAAQAAAAABAAAAAAAAAAAA==

> <PUBCHEM_IUPAC_OPENEYE_NAME>
N-[4-[2-[[2-(2-methoxyphenyl)cyclopropyl]methylamino]ethyl]cyclohexyl]benzenesulfonamide

> <PUBCHEM_IUPAC_CAS_NAME>
N-[4-[2-[[2-(2-methoxyphenyl)cyclopropyl]methylamino]ethyl]cyclohexyl]benzenesulfonamide

> <PUBCHEM_IUPAC_NAME_MARKUP>
<I>N</I>-[4-[2-[[2-(2-methoxyphenyl)cyclopropyl]methylamino]ethyl]cyclohexyl]benzenesulfonamide

> <PUBCHEM_IUPAC_NAME>
N-[4-[2-[[2-(2-methoxyphenyl)cyclopropyl]methylamino]ethyl]cyclohexyl]benzenesulfonamide

> <PUBCHEM_IUPAC_SYSTEMATIC_NAME>
N-[4-[2-[[2-(2-methoxyphenyl)cyclopropyl]methylamino]ethyl]cyclohexyl]benzenesulfonamide

> <PUBCHEM_IUPAC_TRADITIONAL_NAME>
N-[4-[2-[[2-(2-methoxyphenyl)cyclopropyl]methylamino]ethyl]cyclohexyl]benzenesulfonamide

> <PUBCHEM_IUPAC_INCHI>
InChI=1S/C25H34N2O3S/c1-30-25-10-6-5-9-23(25)24-17-20(24)18-26-16-15-19-11-13-21(14-12-19)27-31(28,29)22-7-3-2-4-8-22/h2-10,19-21,24,26-27H,11-18H2,1H3

> <PUBCHEM_IUPAC_INCHIKEY>
RBTSCAZNUBZVQW-UHFFFAOYSA-N

> <PUBCHEM_XLOGP3_AA>
4.4

> <PUBCHEM_EXACT_MASS>
442.22901412

> <PUBCHEM_MOLECULAR_FORMULA>
C25H34N2O3S

> <PUBCHEM_MOLECULAR_WEIGHT>
442.6

> <PUBCHEM_OPENEYE_CAN_SMILES>
COC1=CC=CC=C1C2CC2CNCCC3CCC(CC3)NS(=O)(=O)C4=CC=CC=C4

> <PUBCHEM_OPENEYE_ISO_SMILES>
COC1=CC=CC=C1C2CC2CNCCC3CCC(CC3)NS(=O)(=O)C4=CC=CC=C4

> <PUBCHEM_CACTVS_TPSA>
75.8

> <PUBCHEM_MONOISOTOPIC_WEIGHT>
442.22901412

> <PUBCHEM_TOTAL_CHARGE>
0

> <PUBCHEM_HEAVY_ATOM_COUNT>
31

> <PUBCHEM_ATOM_DEF_STEREO_COUNT>
0

> <PUBCHEM_ATOM_UDEF_STEREO_COUNT>
2

> <PUBCHEM_BOND_DEF_STEREO_COUNT>
0

> <PUBCHEM_BOND_UDEF_STEREO_COUNT>
0

> <PUBCHEM_ISOTOPIC_ATOM_COUNT>
0

> <PUBCHEM_COMPONENT_COUNT>
1

> <PUBCHEM_CACTVS_TAUTO_COUNT>
-1

> <PUBCHEM_COORDINATE_TYPE>
1
5
255

> <PUBCHEM_BONDANNOTATIONS>
11  20  8
11  21  8
20  22  8
21  23  8
22  24  8
23  24  8
25  27  8
25  28  8
27  29  8
28  30  8
29  31  8
30  31  8
7  10  3
8  11  3

$$$$
