9891901
  -OEChem-09292322042D

 63 67  0     0  0  0  0  0  0999 V2000
   15.5454    1.3225    0.0000 Cl  0  0  0  0  0  0  0  0  0  0  0  0
   17.5001    1.7459    0.0000 Cl  0  0  0  0  0  0  0  0  0  0  0  0
    8.3374    1.5336    0.0000 O   0  0  0  0  0  0  0  0  0  0  0  0
   12.9800   -1.0053    0.0000 N   0  0  0  0  0  0  0  0  0  0  0  0
   14.9347   -0.5820    0.0000 N   0  0  0  0  0  0  0  0  0  0  0  0
    8.7040   -0.1592    0.0000 N   0  0  0  0  0  0  0  0  0  0  0  0
   13.6520   -1.7459    0.0000 C   0  0  0  0  0  0  0  0  0  0  0  0
   13.2854   -0.0531    0.0000 C   0  0  0  0  0  0  0  0  0  0  0  0
   14.6294   -1.5342    0.0000 C   0  0  0  0  0  0  0  0  0  0  0  0
   14.2627    0.1586    0.0000 C   0  0  0  0  0  0  0  0  0  0  0  0
   12.0027   -1.2170    0.0000 C   0  0  0  0  0  0  0  0  0  0  0  0
   11.3307   -0.4764    0.0000 C   0  0  0  0  0  0  0  0  0  0  0  0
   10.3534   -0.6881    0.0000 C   0  0  0  0  0  0  0  0  0  0  0  0
   15.9121   -0.3703    0.0000 C   0  0  0  0  0  0  0  0  0  0  0  0
    9.6814    0.0524    0.0000 C   0  0  0  0  0  0  0  0  0  0  0  0
    5.3364    0.9061    0.0000 C   0  0  0  0  0  0  0  0  0  0  0  0
    4.5274    1.4939    0.0000 C   0  0  0  0  0  0  0  0  0  0  0  0
    5.0274   -0.0450    0.0000 C   0  0  0  0  0  0  0  0  0  0  0  0
    3.7183    0.9061    0.0000 C   0  0  0  0  0  0  0  0  0  0  0  0
    4.0274   -0.0450    0.0000 C   0  0  0  0  0  0  0  0  0  0  0  0
   16.2174    0.5820    0.0000 C   0  0  0  0  0  0  0  0  0  0  0  0
   16.5841   -1.1108    0.0000 C   0  0  0  0  0  0  0  0  0  0  0  0
    6.3518    1.1383    0.0000 C   0  0  0  0  0  0  0  0  0  0  0  0
    7.0547    0.3696    0.0000 C   0  0  0  0  0  0  0  0  0  0  0  0
    5.7123   -0.8297    0.0000 C   0  0  0  0  0  0  0  0  0  0  0  0
    8.0321    0.5813    0.0000 C   0  0  0  0  0  0  0  0  0  0  0  0
    6.7328   -0.6210    0.0000 C   0  0  0  0  0  0  0  0  0  0  0  0
   17.1947    0.7936    0.0000 C   0  0  0  0  0  0  0  0  0  0  0  0
   17.5614   -0.8992    0.0000 C   0  0  0  0  0  0  0  0  0  0  0  0
    2.7029    1.1383    0.0000 C   0  0  0  0  0  0  0  0  0  0  0  0
    3.3424   -0.8297    0.0000 C   0  0  0  0  0  0  0  0  0  0  0  0
   17.8667    0.0531    0.0000 C   0  0  0  0  0  0  0  0  0  0  0  0
    2.0000    0.3696    0.0000 C   0  0  0  0  0  0  0  0  0  0  0  0
    2.3219   -0.6210    0.0000 C   0  0  0  0  0  0  0  0  0  0  0  0
   13.1275   -2.0765    0.0000 H   0  0  0  0  0  0  0  0  0  0  0  0
   13.8865   -2.3198    0.0000 H   0  0  0  0  0  0  0  0  0  0  0  0
   13.2614    0.5665    0.0000 H   0  0  0  0  0  0  0  0  0  0  0  0
   12.6711    0.0308    0.0000 H   0  0  0  0  0  0  0  0  0  0  0  0
   14.6534   -2.1537    0.0000 H   0  0  0  0  0  0  0  0  0  0  0  0
   15.2437   -1.6181    0.0000 H   0  0  0  0  0  0  0  0  0  0  0  0
   14.7873    0.4892    0.0000 H   0  0  0  0  0  0  0  0  0  0  0  0
   14.0283    0.7326    0.0000 H   0  0  0  0  0  0  0  0  0  0  0  0
   11.4782   -1.5476    0.0000 H   0  0  0  0  0  0  0  0  0  0  0  0
   12.2372   -1.7910    0.0000 H   0  0  0  0  0  0  0  0  0  0  0  0
   11.8552   -0.1459    0.0000 H   0  0  0  0  0  0  0  0  0  0  0  0
   11.0962    0.0975    0.0000 H   0  0  0  0  0  0  0  0  0  0  0  0
    9.8289   -1.0187    0.0000 H   0  0  0  0  0  0  0  0  0  0  0  0
   10.5878   -1.2621    0.0000 H   0  0  0  0  0  0  0  0  0  0  0  0
   10.2059    0.3830    0.0000 H   0  0  0  0  0  0  0  0  0  0  0  0
    9.4469    0.6264    0.0000 H   0  0  0  0  0  0  0  0  0  0  0  0
    4.9422    1.9546    0.0000 H   0  0  0  0  0  0  0  0  0  0  0  0
    4.1125    1.9546    0.0000 H   0  0  0  0  0  0  0  0  0  0  0  0
   16.3947   -1.7012    0.0000 H   0  0  0  0  0  0  0  0  0  0  0  0
    8.5147   -0.7496    0.0000 H   0  0  0  0  0  0  0  0  0  0  0  0
    6.5365    1.7302    0.0000 H   0  0  0  0  0  0  0  0  0  0  0  0
    5.5139   -1.4171    0.0000 H   0  0  0  0  0  0  0  0  0  0  0  0
    7.1459   -1.0834    0.0000 H   0  0  0  0  0  0  0  0  0  0  0  0
    2.5182    1.7302    0.0000 H   0  0  0  0  0  0  0  0  0  0  0  0
   17.9780   -1.3583    0.0000 H   0  0  0  0  0  0  0  0  0  0  0  0
    3.5408   -1.4171    0.0000 H   0  0  0  0  0  0  0  0  0  0  0  0
   18.4727    0.1843    0.0000 H   0  0  0  0  0  0  0  0  0  0  0  0
    1.3940    0.5009    0.0000 H   0  0  0  0  0  0  0  0  0  0  0  0
    1.9088   -1.0834    0.0000 H   0  0  0  0  0  0  0  0  0  0  0  0
  1 21  1  0  0  0  0
  2 28  1  0  0  0  0
  3 26  2  0  0  0  0
  4  7  1  0  0  0  0
  4  8  1  0  0  0  0
  4 11  1  0  0  0  0
  5  9  1  0  0  0  0
  5 10  1  0  0  0  0
  5 14  1  0  0  0  0
  6 15  1  0  0  0  0
  6 26  1  0  0  0  0
  6 54  1  0  0  0  0
  7  9  1  0  0  0  0
  7 35  1  0  0  0  0
  7 36  1  0  0  0  0
  8 10  1  0  0  0  0
  8 37  1  0  0  0  0
  8 38  1  0  0  0  0
  9 39  1  0  0  0  0
  9 40  1  0  0  0  0
 10 41  1  0  0  0  0
 10 42  1  0  0  0  0
 11 12  1  0  0  0  0
 11 43  1  0  0  0  0
 11 44  1  0  0  0  0
 12 13  1  0  0  0  0
 12 45  1  0  0  0  0
 12 46  1  0  0  0  0
 13 15  1  0  0  0  0
 13 47  1  0  0  0  0
 13 48  1  0  0  0  0
 14 21  2  0  0  0  0
 14 22  1  0  0  0  0
 15 49  1  0  0  0  0
 15 50  1  0  0  0  0
 16 17  1  0  0  0  0
 16 18  2  0  0  0  0
 16 23  1  0  0  0  0
 17 19  1  0  0  0  0
 17 51  1  0  0  0  0
 17 52  1  0  0  0  0
 18 20  1  0  0  0  0
 18 25  1  0  0  0  0
 19 20  1  0  0  0  0
 19 30  2  0  0  0  0
 20 31  2  0  0  0  0
 21 28  1  0  0  0  0
 22 29  2  0  0  0  0
 22 53  1  0  0  0  0
 23 24  2  0  0  0  0
 23 55  1  0  0  0  0
 24 26  1  0  0  0  0
 24 27  1  0  0  0  0
 25 27  2  0  0  0  0
 25 56  1  0  0  0  0
 27 57  1  0  0  0  0
 28 32  2  0  0  0  0
 29 32  1  0  0  0  0
 29 59  1  0  0  0  0
 30 33  1  0  0  0  0
 30 58  1  0  0  0  0
 31 34  1  0  0  0  0
 31 60  1  0  0  0  0
 32 61  1  0  0  0  0
 33 34  2  0  0  0  0
 33 62  1  0  0  0  0
 34 63  1  0  0  0  0
M  END
> <PUBCHEM_COMPOUND_CID>
9891901

> <PUBCHEM_COMPOUND_CANONICALIZED>
1

> <PUBCHEM_CACTVS_COMPLEXITY>
670

> <PUBCHEM_CACTVS_HBOND_ACCEPTOR>
3

> <PUBCHEM_CACTVS_HBOND_DONOR>
1

> <PUBCHEM_CACTVS_ROTATABLE_BOND>
7

> <PUBCHEM_CACTVS_SUBSKEYS>
AAADceB7IAAGAAAAAAAAAAAAAAAAAYAAAAA8YMEAAAAAAGABUAAAHgIQAAAADArBmCQwwIPAAACIAiVSUACCAAAlBwAIisEIZsgIYDLBl5HUIQhglgDIyYcYiMCOwAACAAIQABSAAAQABCAAKQAACAAAAA==

> <PUBCHEM_IUPAC_OPENEYE_NAME>
N-[4-[4-(2,3-dichlorophenyl)piperazin-1-yl]butyl]-9H-fluorene-2-carboxamide

> <PUBCHEM_IUPAC_CAS_NAME>
N-[4-[4-(2,3-dichlorophenyl)-1-piperazinyl]butyl]-9H-fluorene-2-carboxamide

> <PUBCHEM_IUPAC_NAME_MARKUP>
<I>N</I>-[4-[4-(2,3-dichlorophenyl)piperazin-1-yl]butyl]-9<I>H</I>-fluorene-2-carboxamide

> <PUBCHEM_IUPAC_NAME>
N-[4-[4-(2,3-dichlorophenyl)piperazin-1-yl]butyl]-9H-fluorene-2-carboxamide

> <PUBCHEM_IUPAC_SYSTEMATIC_NAME>
N-[4-[4-[2,3-bis(chloranyl)phenyl]piperazin-1-yl]butyl]-9H-fluorene-2-carboxamide

> <PUBCHEM_IUPAC_TRADITIONAL_NAME>
N-[4-[4-(2,3-dichlorophenyl)piperazino]butyl]-9H-fluorene-2-carboxamide

> <PUBCHEM_IUPAC_INCHI>
InChI=1S/C28H29Cl2N3O/c29-25-8-5-9-26(27(25)30)33-16-14-32(15-17-33)13-4-3-12-31-28(34)21-10-11-24-22(19-21)18-20-6-1-2-7-23(20)24/h1-2,5-11,19H,3-4,12-18H2,(H,31,34)

> <PUBCHEM_IUPAC_INCHIKEY>
YJPWVCIGSHWNON-UHFFFAOYSA-N

> <PUBCHEM_XLOGP3_AA>
6.4

> <PUBCHEM_EXACT_MASS>
493.1687679

> <PUBCHEM_MOLECULAR_FORMULA>
C28H29Cl2N3O

> <PUBCHEM_MOLECULAR_WEIGHT>
494.5

> <PUBCHEM_OPENEYE_CAN_SMILES>
C1CN(CCN1CCCCNC(=O)C2=CC3=C(C=C2)C4=CC=CC=C4C3)C5=C(C(=CC=C5)Cl)Cl

> <PUBCHEM_OPENEYE_ISO_SMILES>
C1CN(CCN1CCCCNC(=O)C2=CC3=C(C=C2)C4=CC=CC=C4C3)C5=C(C(=CC=C5)Cl)Cl

> <PUBCHEM_CACTVS_TPSA>
35.6

> <PUBCHEM_MONOISOTOPIC_WEIGHT>
493.1687679

> <PUBCHEM_TOTAL_CHARGE>
0

> <PUBCHEM_HEAVY_ATOM_COUNT>
34

> <PUBCHEM_ATOM_DEF_STEREO_COUNT>
0

> <PUBCHEM_ATOM_UDEF_STEREO_COUNT>
0

> <PUBCHEM_BOND_DEF_STEREO_COUNT>
0

> <PUBCHEM_BOND_UDEF_STEREO_COUNT>
0

> <PUBCHEM_ISOTOPIC_ATOM_COUNT>
0

> <PUBCHEM_COMPONENT_COUNT>
1

> <PUBCHEM_CACTVS_TAUTO_COUNT>
2

> <PUBCHEM_COORDINATE_TYPE>
1
5
255

> <PUBCHEM_BONDANNOTATIONS>
14  21  8
14  22  8
16  18  8
16  23  8
18  25  8
19  20  8
19  30  8
20  31  8
21  28  8
22  29  8
23  24  8
24  27  8
25  27  8
28  32  8
29  32  8
30  33  8
31  34  8
33  34  8

$$$$
