164625185
  -OEChem-09292322432D

 59 62  0     1  0  0  0  0  0999 V2000
    5.4176    4.0321    0.0000 O   0  0  0  0  0  0  0  0  0  0  0  0
    8.0436    2.4975    0.0000 O   0  0  0  0  0  0  0  0  0  0  0  0
    2.0000   -2.0770    0.0000 O   0  0  0  0  0  0  0  0  0  0  0  0
    5.4176    1.9628    0.0000 N   0  0  3  0  0  0  0  0  0  0  0  0
    3.7319   -2.0570    0.0000 N   0  0  0  0  0  0  0  0  0  0  0  0
    6.3116    2.4975    0.0000 C   0  0  1  0  0  0  0  0  0  0  0  0
    6.3116    3.4975    0.0000 C   0  0  1  0  0  0  0  0  0  0  0  0
    4.5116    2.4767    0.0000 C   0  0  0  0  0  0  0  0  0  0  0  0
    7.1776    1.9975    0.0000 C   0  0  0  0  0  0  0  0  0  0  0  0
    5.4292    0.9629    0.0000 C   0  0  0  0  0  0  0  0  0  0  0  0
    2.8833   -3.5669    0.0000 C   0  0  0  0  0  0  0  0  0  0  0  0
    7.1776    3.9975    0.0000 C   0  0  0  0  0  0  0  0  0  0  0  0
    4.5116    3.5183    0.0000 C   0  0  0  0  0  0  0  0  0  0  0  0
    2.0231   -4.0768    0.0000 C   0  0  0  0  0  0  0  0  0  0  0  0
    3.7551   -4.0568    0.0000 C   0  0  0  0  0  0  0  0  0  0  0  0
    4.5690    0.4529    0.0000 C   0  0  0  0  0  0  0  0  0  0  0  0
    2.0347   -5.0768    0.0000 C   0  0  0  0  0  0  0  0  0  0  0  0
    3.7666   -5.0568    0.0000 C   0  0  0  0  0  0  0  0  0  0  0  0
    2.9064   -5.5667    0.0000 C   0  0  0  0  0  0  0  0  0  0  0  0
    8.0436    3.4975    0.0000 C   0  0  0  0  0  0  0  0  0  0  0  0
    4.5806   -0.5470    0.0000 C   0  0  0  0  0  0  0  0  0  0  0  0
    2.8718   -2.5669    0.0000 C   0  0  0  0  0  0  0  0  0  0  0  0
    3.7204   -1.0570    0.0000 C   0  0  0  0  0  0  0  0  0  0  0  0
    7.1615    5.0390    0.0000 C   0  0  0  0  0  0  0  0  0  0  0  0
    8.9536    4.0043    0.0000 C   0  0  0  0  0  0  0  0  0  0  0  0
    8.0596    5.5667    0.0000 C   0  0  0  0  0  0  0  0  0  0  0  0
    8.9616    5.0459    0.0000 C   0  0  0  0  0  0  0  0  0  0  0  0
    6.3181    1.6475    0.0000 H   0  0  0  0  0  0  0  0  0  0  0  0
    6.3181    4.3474    0.0000 H   0  0  0  0  0  0  0  0  0  0  0  0
    3.9007    2.5828    0.0000 H   0  0  0  0  0  0  0  0  0  0  0  0
    4.3025    1.8930    0.0000 H   0  0  0  0  0  0  0  0  0  0  0  0
    6.7791    1.5225    0.0000 H   0  0  0  0  0  0  0  0  0  0  0  0
    7.5761    1.5225    0.0000 H   0  0  0  0  0  0  0  0  0  0  0  0
    5.6480    0.3828    0.0000 H   0  0  0  0  0  0  0  0  0  0  0  0
    6.0385    1.0776    0.0000 H   0  0  0  0  0  0  0  0  0  0  0  0
    3.4166   -3.2507    0.0000 H   0  0  0  0  0  0  0  0  0  0  0  0
    4.3025    4.1020    0.0000 H   0  0  0  0  0  0  0  0  0  0  0  0
    3.9007    3.4122    0.0000 H   0  0  0  0  0  0  0  0  0  0  0  0
    1.8044   -3.4967    0.0000 H   0  0  0  0  0  0  0  0  0  0  0  0
    1.4138   -4.1916    0.0000 H   0  0  0  0  0  0  0  0  0  0  0  0
    4.3668   -4.1574    0.0000 H   0  0  0  0  0  0  0  0  0  0  0  0
    3.9604   -3.4718    0.0000 H   0  0  0  0  0  0  0  0  0  0  0  0
    4.3502    1.0330    0.0000 H   0  0  0  0  0  0  0  0  0  0  0  0
    3.9597    0.3382    0.0000 H   0  0  0  0  0  0  0  0  0  0  0  0
    1.4229   -4.9762    0.0000 H   0  0  0  0  0  0  0  0  0  0  0  0
    1.8294   -5.6618    0.0000 H   0  0  0  0  0  0  0  0  0  0  0  0
    3.9854   -5.6369    0.0000 H   0  0  0  0  0  0  0  0  0  0  0  0
    4.3759   -4.9420    0.0000 H   0  0  0  0  0  0  0  0  0  0  0  0
    2.5134   -6.0463    0.0000 H   0  0  0  0  0  0  0  0  0  0  0  0
    3.3104   -6.0370    0.0000 H   0  0  0  0  0  0  0  0  0  0  0  0
    4.7993   -1.1272    0.0000 H   0  0  0  0  0  0  0  0  0  0  0  0
    5.1898   -0.4323    0.0000 H   0  0  0  0  0  0  0  0  0  0  0  0
    3.5016   -0.4769    0.0000 H   0  0  0  0  0  0  0  0  0  0  0  0
    3.1111   -1.1717    0.0000 H   0  0  0  0  0  0  0  0  0  0  0  0
    6.6210    5.3428    0.0000 H   0  0  0  0  0  0  0  0  0  0  0  0
    4.2724   -2.3607    0.0000 H   0  0  0  0  0  0  0  0  0  0  0  0
    9.4869    3.6881    0.0000 H   0  0  0  0  0  0  0  0  0  0  0  0
    8.0572    6.1867    0.0000 H   0  0  0  0  0  0  0  0  0  0  0  0
    9.4998    5.3538    0.0000 H   0  0  0  0  0  0  0  0  0  0  0  0
  1  7  1  0  0  0  0
  1 13  1  0  0  0  0
  2  9  1  0  0  0  0
  2 20  1  0  0  0  0
  3 22  2  0  0  0  0
  4  6  1  0  0  0  0
  4  8  1  0  0  0  0
  4 10  1  0  0  0  0
  5 22  1  0  0  0  0
  5 23  1  0  0  0  0
  5 56  1  0  0  0  0
  6  7  1  0  0  0  0
  6  9  1  0  0  0  0
  6 28  1  6  0  0  0
  7 12  1  0  0  0  0
  7 29  1  1  0  0  0
  8 13  1  0  0  0  0
  8 30  1  0  0  0  0
  8 31  1  0  0  0  0
  9 32  1  0  0  0  0
  9 33  1  0  0  0  0
 10 16  1  0  0  0  0
 10 34  1  0  0  0  0
 10 35  1  0  0  0  0
 11 14  1  0  0  0  0
 11 15  1  0  0  0  0
 11 22  1  0  0  0  0
 11 36  1  0  0  0  0
 12 20  1  0  0  0  0
 12 24  2  0  0  0  0
 13 37  1  0  0  0  0
 13 38  1  0  0  0  0
 14 17  1  0  0  0  0
 14 39  1  0  0  0  0
 14 40  1  0  0  0  0
 15 18  1  0  0  0  0
 15 41  1  0  0  0  0
 15 42  1  0  0  0  0
 16 21  1  0  0  0  0
 16 43  1  0  0  0  0
 16 44  1  0  0  0  0
 17 19  1  0  0  0  0
 17 45  1  0  0  0  0
 17 46  1  0  0  0  0
 18 19  1  0  0  0  0
 18 47  1  0  0  0  0
 18 48  1  0  0  0  0
 19 49  1  0  0  0  0
 19 50  1  0  0  0  0
 20 25  2  0  0  0  0
 21 23  1  0  0  0  0
 21 51  1  0  0  0  0
 21 52  1  0  0  0  0
 23 53  1  0  0  0  0
 23 54  1  0  0  0  0
 24 26  1  0  0  0  0
 24 55  1  0  0  0  0
 25 27  1  0  0  0  0
 25 57  1  0  0  0  0
 26 27  2  0  0  0  0
 26 58  1  0  0  0  0
 27 59  1  0  0  0  0
M  END
> <PUBCHEM_COMPOUND_CID>
164625185

> <PUBCHEM_COMPOUND_CANONICALIZED>
1

> <PUBCHEM_CACTVS_COMPLEXITY>
480

> <PUBCHEM_CACTVS_HBOND_ACCEPTOR>
4

> <PUBCHEM_CACTVS_HBOND_DONOR>
1

> <PUBCHEM_CACTVS_ROTATABLE_BOND>
6

> <PUBCHEM_CACTVS_SUBSKEYS>
AAADcfB7MAAAAAAAAAAAAAAAAAAAAAAAAAA8aIEAAAAAAACxAAAAHgAQAAAADTzhmAYwBoPABACIAiFSEAACCAAgIAAIiIEOCIgOJzKEsRuHOCCl1hGYqAe4yKCOAAAAAAAIAAAAAAAAABAAAAAAAAAAAA==

> <PUBCHEM_IUPAC_OPENEYE_NAME>
N-[4-[(4aR,10bR)-3,4a,5,10b-tetrahydro-2H-chromeno[4,3-b][1,4]oxazin-4-yl]butyl]cyclohexanecarboxamide

> <PUBCHEM_IUPAC_CAS_NAME>
N-[4-[(4aR,10bR)-3,4a,5,10b-tetrahydro-2H-[1]benzopyrano[4,3-b][1,4]oxazin-4-yl]butyl]cyclohexanecarboxamide

> <PUBCHEM_IUPAC_NAME_MARKUP>
<I>N</I>-[4-[(4<I>a</I><I>R</I>,10<I>b</I><I>R</I>)-3,4<I>a</I>,5,10<I>b</I>-tetrahydro-2<I>H</I>-chromeno[4,3-b][1,4]oxazin-4-yl]butyl]cyclohexanecarboxamide

> <PUBCHEM_IUPAC_NAME>
N-[4-[(4aR,10bR)-3,4a,5,10b-tetrahydro-2H-chromeno[4,3-b][1,4]oxazin-4-yl]butyl]cyclohexanecarboxamide

> <PUBCHEM_IUPAC_SYSTEMATIC_NAME>
N-[4-[(4aR,10bR)-3,4a,5,10b-tetrahydro-2H-chromeno[4,3-b][1,4]oxazin-4-yl]butyl]cyclohexanecarboxamide

> <PUBCHEM_IUPAC_TRADITIONAL_NAME>
N-[4-[(4aR,10bR)-3,4a,5,10b-tetrahydro-2H-chromeno[4,3-b][1,4]oxazin-4-yl]butyl]cyclohexanecarboxamide

> <PUBCHEM_IUPAC_INCHI>
InChI=1S/C22H32N2O3/c25-22(17-8-2-1-3-9-17)23-12-6-7-13-24-14-15-26-21-18-10-4-5-11-20(18)27-16-19(21)24/h4-5,10-11,17,19,21H,1-3,6-9,12-16H2,(H,23,25)/t19-,21-/m1/s1

> <PUBCHEM_IUPAC_INCHIKEY>
ALPMTMYCYHOFLH-TZIWHRDSSA-N

> <PUBCHEM_XLOGP3>
3.5

> <PUBCHEM_EXACT_MASS>
372.24129289

> <PUBCHEM_MOLECULAR_FORMULA>
C22H32N2O3

> <PUBCHEM_MOLECULAR_WEIGHT>
372.5

> <PUBCHEM_OPENEYE_CAN_SMILES>
C1CCC(CC1)C(=O)NCCCCN2CCOC3C2COC4=CC=CC=C34

> <PUBCHEM_OPENEYE_ISO_SMILES>
C1CCC(CC1)C(=O)NCCCCN2CCO[C@H]3[C@H]2COC4=CC=CC=C34

> <PUBCHEM_CACTVS_TPSA>
50.8

> <PUBCHEM_MONOISOTOPIC_WEIGHT>
372.24129289

> <PUBCHEM_TOTAL_CHARGE>
0

> <PUBCHEM_HEAVY_ATOM_COUNT>
27

> <PUBCHEM_ATOM_DEF_STEREO_COUNT>
2

> <PUBCHEM_ATOM_UDEF_STEREO_COUNT>
0

> <PUBCHEM_BOND_DEF_STEREO_COUNT>
0

> <PUBCHEM_BOND_UDEF_STEREO_COUNT>
0

> <PUBCHEM_ISOTOPIC_ATOM_COUNT>
0

> <PUBCHEM_COMPONENT_COUNT>
1

> <PUBCHEM_CACTVS_TAUTO_COUNT>
-1

> <PUBCHEM_COORDINATE_TYPE>
1
5
255

> <PUBCHEM_BONDANNOTATIONS>
12  20  8
12  24  8
20  25  8
24  26  8
25  27  8
26  27  8
6  28  6
7  29  5

$$$$
