11525938
  -OEChem-09292322152D

 72 75  0     1  0  0  0  0  0999 V2000
    8.5000   -1.6298    0.0000 O   0  0  0  0  0  0  0  0  0  0  0  0
    2.0000   -0.7637    0.0000 O   0  0  0  0  0  0  0  0  0  0  0  0
   14.0000    0.9683    0.0000 N   0  0  3  0  0  0  0  0  0  0  0  0
    8.5000    0.1023    0.0000 N   0  0  0  0  0  0  0  0  0  0  0  0
   19.7188    2.4958    0.0000 N   0  0  0  0  0  0  0  0  0  0  0  0
    3.5000    0.1023    0.0000 N   0  0  0  0  0  0  0  0  0  0  0  0
   11.5000    0.1023    0.0000 C   0  0  0  0  0  0  0  0  0  0  0  0
   11.0000   -0.7637    0.0000 C   0  0  0  0  0  0  0  0  0  0  0  0
   11.0000    0.9683    0.0000 C   0  0  0  0  0  0  0  0  0  0  0  0
    9.5000    0.1023    0.0000 C   0  0  0  0  0  0  0  0  0  0  0  0
   10.0000   -0.7637    0.0000 C   0  0  0  0  0  0  0  0  0  0  0  0
   10.0000    0.9683    0.0000 C   0  0  0  0  0  0  0  0  0  0  0  0
   12.5000    0.1023    0.0000 C   0  0  0  0  0  0  0  0  0  0  0  0
   13.0000    0.9683    0.0000 C   0  0  0  0  0  0  0  0  0  0  0  0
   14.4339    1.8693    0.0000 C   0  0  0  0  0  0  0  0  0  0  0  0
   14.4339    0.0673    0.0000 C   0  0  0  0  0  0  0  0  0  0  0  0
   15.4088    2.0918    0.0000 C   0  0  0  0  0  0  0  0  0  0  0  0
   15.4088   -0.1552    0.0000 C   0  0  0  0  0  0  0  0  0  0  0  0
   16.1906    1.4683    0.0000 C   0  0  0  0  0  0  0  0  0  0  0  0
   16.1906    0.4683    0.0000 C   0  0  0  0  0  0  0  0  0  0  0  0
    8.0000   -0.7637    0.0000 C   0  0  0  0  0  0  0  0  0  0  0  0
   17.0846    2.0030    0.0000 C   0  0  0  0  0  0  0  0  0  0  0  0
   17.0846   -0.0664    0.0000 C   0  0  0  0  0  0  0  0  0  0  0  0
    7.0000   -0.7637    0.0000 C   0  0  0  0  0  0  0  0  0  0  0  0
   17.9907    1.4891    0.0000 C   0  0  0  0  0  0  0  0  0  0  0  0
   17.9907    0.4475    0.0000 C   0  0  0  0  0  0  0  0  0  0  0  0
    6.5000   -1.6298    0.0000 C   0  0  0  0  0  0  0  0  0  0  0  0
   18.8547    1.9925    0.0000 C   0  0  0  0  0  0  0  0  0  0  0  0
    5.5000   -1.6298    0.0000 C   0  0  0  0  0  0  0  0  0  0  0  0
    5.0000   -0.7637    0.0000 C   0  0  0  0  0  0  0  0  0  0  0  0
    5.0000   -2.4958    0.0000 C   0  0  0  0  0  0  0  0  0  0  0  0
    4.0000   -0.7637    0.0000 C   0  0  0  0  0  0  0  0  0  0  0  0
    4.0000   -2.4958    0.0000 C   0  0  0  0  0  0  0  0  0  0  0  0
    3.5000   -1.6298    0.0000 C   0  0  0  0  0  0  0  0  0  0  0  0
    2.5000    0.1023    0.0000 C   0  0  0  0  0  0  0  0  0  0  0  0
    2.0000    0.9683    0.0000 C   0  0  0  0  0  0  0  0  0  0  0  0
   11.8100   -0.4347    0.0000 H   0  0  0  0  0  0  0  0  0  0  0  0
   10.8923   -1.3743    0.0000 H   0  0  0  0  0  0  0  0  0  0  0  0
   11.5826   -0.9758    0.0000 H   0  0  0  0  0  0  0  0  0  0  0  0
   11.5826    1.1804    0.0000 H   0  0  0  0  0  0  0  0  0  0  0  0
   10.8923    1.5789    0.0000 H   0  0  0  0  0  0  0  0  0  0  0  0
    9.1900   -0.4347    0.0000 H   0  0  0  0  0  0  0  0  0  0  0  0
    9.4174   -0.9758    0.0000 H   0  0  0  0  0  0  0  0  0  0  0  0
   10.1077   -1.3743    0.0000 H   0  0  0  0  0  0  0  0  0  0  0  0
   10.1077    1.5789    0.0000 H   0  0  0  0  0  0  0  0  0  0  0  0
    9.4174    1.1804    0.0000 H   0  0  0  0  0  0  0  0  0  0  0  0
   12.3923   -0.5083    0.0000 H   0  0  0  0  0  0  0  0  0  0  0  0
   13.0826   -0.1098    0.0000 H   0  0  0  0  0  0  0  0  0  0  0  0
   13.1077    1.5789    0.0000 H   0  0  0  0  0  0  0  0  0  0  0  0
   12.4174    1.1804    0.0000 H   0  0  0  0  0  0  0  0  0  0  0  0
    8.1900    0.6392    0.0000 H   0  0  0  0  0  0  0  0  0  0  0  0
   14.4339    2.4893    0.0000 H   0  0  0  0  0  0  0  0  0  0  0  0
   13.8294    2.0072    0.0000 H   0  0  0  0  0  0  0  0  0  0  0  0
   13.8294   -0.0706    0.0000 H   0  0  0  0  0  0  0  0  0  0  0  0
   14.4339   -0.5527    0.0000 H   0  0  0  0  0  0  0  0  0  0  0  0
   15.8935    2.4784    0.0000 H   0  0  0  0  0  0  0  0  0  0  0  0
   15.1398    2.6504    0.0000 H   0  0  0  0  0  0  0  0  0  0  0  0
   15.1398   -0.7138    0.0000 H   0  0  0  0  0  0  0  0  0  0  0  0
   15.8935   -0.5417    0.0000 H   0  0  0  0  0  0  0  0  0  0  0  0
   17.0774    2.6229    0.0000 H   0  0  0  0  0  0  0  0  0  0  0  0
   17.0774   -0.6863    0.0000 H   0  0  0  0  0  0  0  0  0  0  0  0
    6.6900   -0.2268    0.0000 H   0  0  0  0  0  0  0  0  0  0  0  0
   18.5264    0.1354    0.0000 H   0  0  0  0  0  0  0  0  0  0  0  0
    6.8100   -2.1667    0.0000 H   0  0  0  0  0  0  0  0  0  0  0  0
    5.3100   -0.2268    0.0000 H   0  0  0  0  0  0  0  0  0  0  0  0
    5.3100   -3.0327    0.0000 H   0  0  0  0  0  0  0  0  0  0  0  0
    3.6900   -3.0327    0.0000 H   0  0  0  0  0  0  0  0  0  0  0  0
    2.8800   -1.6298    0.0000 H   0  0  0  0  0  0  0  0  0  0  0  0
    3.8100    0.6392    0.0000 H   0  0  0  0  0  0  0  0  0  0  0  0
    2.5369    1.2783    0.0000 H   0  0  0  0  0  0  0  0  0  0  0  0
    1.6900    1.5052    0.0000 H   0  0  0  0  0  0  0  0  0  0  0  0
    1.4631    0.6583    0.0000 H   0  0  0  0  0  0  0  0  0  0  0  0
  1 21  2  0  0  0  0
  2 35  2  0  0  0  0
  3 14  1  0  0  0  0
  3 15  1  0  0  0  0
  3 16  1  0  0  0  0
  4 10  1  0  0  0  0
  4 21  1  0  0  0  0
  4 51  1  0  0  0  0
  5 28  3  0  0  0  0
  6 32  1  0  0  0  0
  6 35  1  0  0  0  0
  6 69  1  0  0  0  0
  7  8  1  0  0  0  0
  7  9  1  0  0  0  0
  7 13  1  0  0  0  0
  7 37  1  0  0  0  0
  8 11  1  0  0  0  0
  8 38  1  0  0  0  0
  8 39  1  0  0  0  0
  9 12  1  0  0  0  0
  9 40  1  0  0  0  0
  9 41  1  0  0  0  0
 10 11  1  0  0  0  0
 10 12  1  0  0  0  0
 10 42  1  0  0  0  0
 11 43  1  0  0  0  0
 11 44  1  0  0  0  0
 12 45  1  0  0  0  0
 12 46  1  0  0  0  0
 13 14  1  0  0  0  0
 13 47  1  0  0  0  0
 13 48  1  0  0  0  0
 14 49  1  0  0  0  0
 14 50  1  0  0  0  0
 15 17  1  0  0  0  0
 15 52  1  0  0  0  0
 15 53  1  0  0  0  0
 16 18  1  0  0  0  0
 16 54  1  0  0  0  0
 16 55  1  0  0  0  0
 17 19  1  0  0  0  0
 17 56  1  0  0  0  0
 17 57  1  0  0  0  0
 18 20  1  0  0  0  0
 18 58  1  0  0  0  0
 18 59  1  0  0  0  0
 19 20  2  0  0  0  0
 19 22  1  0  0  0  0
 20 23  1  0  0  0  0
 21 24  1  0  0  0  0
 22 25  2  0  0  0  0
 22 60  1  0  0  0  0
 23 26  2  0  0  0  0
 23 61  1  0  0  0  0
 24 27  2  0  0  0  0
 24 62  1  0  0  0  0
 25 26  1  0  0  0  0
 25 28  1  0  0  0  0
 26 63  1  0  0  0  0
 27 29  1  0  0  0  0
 27 64  1  0  0  0  0
 29 30  2  0  0  0  0
 29 31  1  0  0  0  0
 30 32  1  0  0  0  0
 30 65  1  0  0  0  0
 31 33  2  0  0  0  0
 31 66  1  0  0  0  0
 32 34  2  0  0  0  0
 33 34  1  0  0  0  0
 33 67  1  0  0  0  0
 34 68  1  0  0  0  0
 35 36  1  0  0  0  0
 36 70  1  0  0  0  0
 36 71  1  0  0  0  0
 36 72  1  0  0  0  0
M  END
> <PUBCHEM_COMPOUND_CID>
11525938

> <PUBCHEM_COMPOUND_CANONICALIZED>
1

> <PUBCHEM_CACTVS_COMPLEXITY>
809

> <PUBCHEM_CACTVS_HBOND_ACCEPTOR>
4

> <PUBCHEM_CACTVS_HBOND_DONOR>
2

> <PUBCHEM_CACTVS_ROTATABLE_BOND>
7

> <PUBCHEM_CACTVS_SUBSKEYS>
AAADcfB7sAAAAAAAAAAAAAAAAAAAAAAAAAAwYMAABYAAAAABQAAAHgAQAAAADSjBmAQywIPAAACYBiVSUACiAAAhAgAIiIAIZMgIoCLAkZGEIAhglgDIyY8QgMAOwAACQAAQAACQAASAACAAAAAAAAAAAA==

> <PUBCHEM_IUPAC_OPENEYE_NAME>
(E)-3-(3-acetamidophenyl)-N-[4-[2-(7-cyano-1,2,4,5-tetrahydro-3-benzazepin-3-yl)ethyl]cyclohexyl]prop-2-enamide

> <PUBCHEM_IUPAC_CAS_NAME>
(E)-3-(3-acetamidophenyl)-N-[4-[2-(7-cyano-1,2,4,5-tetrahydro-3-benzazepin-3-yl)ethyl]cyclohexyl]-2-propenamide

> <PUBCHEM_IUPAC_NAME_MARKUP>
(<I>E</I>)-3-(3-acetamidophenyl)-<I>N</I>-[4-[2-(7-cyano-1,2,4,5-tetrahydro-3-benzazepin-3-yl)ethyl]cyclohexyl]prop-2-enamide

> <PUBCHEM_IUPAC_NAME>
(E)-3-(3-acetamidophenyl)-N-[4-[2-(7-cyano-1,2,4,5-tetrahydro-3-benzazepin-3-yl)ethyl]cyclohexyl]prop-2-enamide

> <PUBCHEM_IUPAC_SYSTEMATIC_NAME>
(E)-3-(3-acetamidophenyl)-N-[4-[2-(7-cyano-1,2,4,5-tetrahydro-3-benzazepin-3-yl)ethyl]cyclohexyl]prop-2-enamide

> <PUBCHEM_IUPAC_TRADITIONAL_NAME>
(E)-3-(3-acetamidophenyl)-N-[4-[2-(7-cyano-1,2,4,5-tetrahydro-3-benzazepin-3-yl)ethyl]cyclohexyl]acrylamide

> <PUBCHEM_IUPAC_INCHI>
InChI=1S/C30H36N4O2/c1-22(35)32-29-4-2-3-24(20-29)8-12-30(36)33-28-10-6-23(7-11-28)13-16-34-17-14-26-9-5-25(21-31)19-27(26)15-18-34/h2-5,8-9,12,19-20,23,28H,6-7,10-11,13-18H2,1H3,(H,32,35)(H,33,36)/b12-8+

> <PUBCHEM_IUPAC_INCHIKEY>
OFRYPJSVIVBOHV-XYOKQWHBSA-N

> <PUBCHEM_XLOGP3_AA>
4.4

> <PUBCHEM_EXACT_MASS>
484.28382640

> <PUBCHEM_MOLECULAR_FORMULA>
C30H36N4O2

> <PUBCHEM_MOLECULAR_WEIGHT>
484.6

> <PUBCHEM_OPENEYE_CAN_SMILES>
CC(=O)NC1=CC=CC(=C1)C=CC(=O)NC2CCC(CC2)CCN3CCC4=C(CC3)C=C(C=C4)C#N

> <PUBCHEM_OPENEYE_ISO_SMILES>
CC(=O)NC1=CC=CC(=C1)/C=C/C(=O)NC2CCC(CC2)CCN3CCC4=C(CC3)C=C(C=C4)C#N

> <PUBCHEM_CACTVS_TPSA>
85.2

> <PUBCHEM_MONOISOTOPIC_WEIGHT>
484.28382640

> <PUBCHEM_TOTAL_CHARGE>
0

> <PUBCHEM_HEAVY_ATOM_COUNT>
36

> <PUBCHEM_ATOM_DEF_STEREO_COUNT>
0

> <PUBCHEM_ATOM_UDEF_STEREO_COUNT>
0

> <PUBCHEM_BOND_DEF_STEREO_COUNT>
1

> <PUBCHEM_BOND_UDEF_STEREO_COUNT>
0

> <PUBCHEM_ISOTOPIC_ATOM_COUNT>
0

> <PUBCHEM_COMPONENT_COUNT>
1

> <PUBCHEM_CACTVS_TAUTO_COUNT>
-1

> <PUBCHEM_COORDINATE_TYPE>
1
5
255

> <PUBCHEM_BONDANNOTATIONS>
19  20  8
19  22  8
20  23  8
22  25  8
23  26  8
25  26  8
29  30  8
29  31  8
30  32  8
31  33  8
32  34  8
33  34  8

$$$$
