16731518
  -OEChem-09292322092D

 87 92  0     1  0  0  0  0  0999 V2000
    7.1189    6.8702    0.0000 F   0  0  0  0  0  0  0  0  0  0  0  0
    7.1536   -2.1297    0.0000 O   0  0  0  0  0  0  0  0  0  0  0  0
    5.3984    3.8636    0.0000 O   0  0  0  0  0  0  0  0  0  0  0  0
    8.0061    1.3736    0.0000 O   0  0  0  0  0  0  0  0  0  0  0  0
    4.1520    4.4128    0.0000 O   0  0  0  0  0  0  0  0  0  0  0  0
   10.6857   -2.1300    0.0000 N   0  0  3  0  0  0  0  0  0  0  0  0
    4.5382    2.3602    0.0000 N   0  0  0  0  0  0  0  0  0  0  0  0
   11.6738   -6.3201    0.0000 N   0  0  0  0  0  0  0  0  0  0  0  0
    8.0138   -0.6264    0.0000 N   0  0  0  0  0  0  0  0  0  0  0  0
    6.2741    1.3669    0.0000 N   0  0  0  0  0  0  0  0  0  0  0  0
    2.4592    4.0461    0.0000 N   0  0  0  0  0  0  0  0  0  0  0  0
   10.6697   -3.1715    0.0000 C   0  0  1  0  0  0  0  0  0  0  0  0
    9.8036   -3.6715    0.0000 C   0  0  0  0  0  0  0  0  0  0  0  0
   11.5357   -3.6715    0.0000 C   0  0  0  0  0  0  0  0  0  0  0  0
    8.8856   -2.1230    0.0000 C   0  0  1  0  0  0  0  0  0  0  0  0
    9.7877   -1.6022    0.0000 C   0  0  0  0  0  0  0  0  0  0  0  0
   11.5357   -4.6715    0.0000 C   0  0  0  0  0  0  0  0  0  0  0  0
    9.8036   -4.6715    0.0000 C   0  0  0  0  0  0  0  0  0  0  0  0
   10.6697   -5.1715    0.0000 C   0  0  0  0  0  0  0  0  0  0  0  0
    8.8936   -3.1646    0.0000 C   0  0  0  0  0  0  0  0  0  0  0  0
   10.6857   -6.2130    0.0000 C   0  0  0  0  0  0  0  0  0  0  0  0
   11.5575   -1.6400    0.0000 C   0  0  0  0  0  0  0  0  0  0  0  0
    8.0177   -1.6264    0.0000 C   0  0  0  0  0  0  0  0  0  0  0  0
    3.6231    2.7635    0.0000 C   0  0  1  0  0  0  0  0  0  0  0  0
   12.1536   -5.4498    0.0000 C   0  0  0  0  0  0  0  0  0  0  0  0
    2.9568    2.0177    0.0000 C   0  0  0  0  0  0  0  0  0  0  0  0
    4.4375    1.3653    0.0000 C   0  0  0  0  0  0  0  0  0  0  0  0
    3.4601    1.1536    0.0000 C   0  0  0  0  0  0  0  0  0  0  0  0
    8.8936   -5.1783    0.0000 C   0  0  0  0  0  0  0  0  0  0  0  0
    7.1459   -0.1297    0.0000 C   0  0  1  0  0  0  0  0  0  0  0  0
    6.2702    2.3669    0.0000 C   0  0  2  0  0  0  0  0  0  0  0  0
    9.7877   -6.7407    0.0000 C   0  0  0  0  0  0  0  0  0  0  0  0
    5.4023    2.8636    0.0000 C   0  0  0  0  0  0  0  0  0  0  0  0
    6.2818   -0.6331    0.0000 C   0  0  0  0  0  0  0  0  0  0  0  0
    8.8856   -6.2199    0.0000 C   0  0  0  0  0  0  0  0  0  0  0  0
    7.1420    0.8703    0.0000 C   0  0  0  0  0  0  0  0  0  0  0  0
    3.4114    3.7408    0.0000 C   0  0  0  0  0  0  0  0  0  0  0  0
    7.1343    2.8702    0.0000 C   0  0  0  0  0  0  0  0  0  0  0  0
    5.4138   -0.1364    0.0000 C   0  0  0  0  0  0  0  0  0  0  0  0
    6.2856   -1.6330    0.0000 C   0  0  0  0  0  0  0  0  0  0  0  0
    7.1304    3.8702    0.0000 C   0  0  0  0  0  0  0  0  0  0  0  0
    7.9945    4.3736    0.0000 C   0  0  0  0  0  0  0  0  0  0  0  0
    6.2625    4.3669    0.0000 C   0  0  0  0  0  0  0  0  0  0  0  0
    7.9907    5.3736    0.0000 C   0  0  0  0  0  0  0  0  0  0  0  0
    6.2586    5.3669    0.0000 C   0  0  0  0  0  0  0  0  0  0  0  0
    7.1227    5.8702    0.0000 C   0  0  0  0  0  0  0  0  0  0  0  0
   11.4090   -2.7522    0.0000 H   0  0  0  0  0  0  0  0  0  0  0  0
   12.1463   -3.7791    0.0000 H   0  0  0  0  0  0  0  0  0  0  0  0
   11.7477   -3.0889    0.0000 H   0  0  0  0  0  0  0  0  0  0  0  0
    8.3505   -2.4361    0.0000 H   0  0  0  0  0  0  0  0  0  0  0  0
   10.1887   -1.1293    0.0000 H   0  0  0  0  0  0  0  0  0  0  0  0
    9.3904   -1.1262    0.0000 H   0  0  0  0  0  0  0  0  0  0  0  0
    8.3603   -3.4808    0.0000 H   0  0  0  0  0  0  0  0  0  0  0  0
   11.8613   -2.1805    0.0000 H   0  0  0  0  0  0  0  0  0  0  0  0
   12.0980   -1.3362    0.0000 H   0  0  0  0  0  0  0  0  0  0  0  0
   11.2537   -1.0995    0.0000 H   0  0  0  0  0  0  0  0  0  0  0  0
    4.1034    3.1555    0.0000 H   0  0  0  0  0  0  0  0  0  0  0  0
   12.7715   -5.3981    0.0000 H   0  0  0  0  0  0  0  0  0  0  0  0
    2.5402    2.4769    0.0000 H   0  0  0  0  0  0  0  0  0  0  0  0
    2.4566    1.6514    0.0000 H   0  0  0  0  0  0  0  0  0  0  0  0
    4.5047    0.7490    0.0000 H   0  0  0  0  0  0  0  0  0  0  0  0
    5.0575    1.3677    0.0000 H   0  0  0  0  0  0  0  0  0  0  0  0
    2.8947    0.8993    0.0000 H   0  0  0  0  0  0  0  0  0  0  0  0
    3.6540    0.5647    0.0000 H   0  0  0  0  0  0  0  0  0  0  0  0
    8.3603   -4.8621    0.0000 H   0  0  0  0  0  0  0  0  0  0  0  0
   11.9597   -6.8702    0.0000 H   0  0  0  0  0  0  0  0  0  0  0  0
    7.1483   -0.7497    0.0000 H   0  0  0  0  0  0  0  0  0  0  0  0
    8.5496   -0.3143    0.0000 H   0  0  0  0  0  0  0  0  0  0  0  0
    6.8083    2.0590    0.0000 H   0  0  0  0  0  0  0  0  0  0  0  0
    9.7901   -7.3607    0.0000 H   0  0  0  0  0  0  0  0  0  0  0  0
    5.7460   -0.9451    0.0000 H   0  0  0  0  0  0  0  0  0  0  0  0
    8.3475   -6.5278    0.0000 H   0  0  0  0  0  0  0  0  0  0  0  0
    5.7383    1.0549    0.0000 H   0  0  0  0  0  0  0  0  0  0  0  0
    7.3486    2.2885    0.0000 H   0  0  0  0  0  0  0  0  0  0  0  0
    7.7445    2.9803    0.0000 H   0  0  0  0  0  0  0  0  0  0  0  0
    5.7218    0.4017    0.0000 H   0  0  0  0  0  0  0  0  0  0  0  0
    4.8757    0.1715    0.0000 H   0  0  0  0  0  0  0  0  0  0  0  0
    5.1059   -0.6745    0.0000 H   0  0  0  0  0  0  0  0  0  0  0  0
    5.6656   -1.6354    0.0000 H   0  0  0  0  0  0  0  0  0  0  0  0
    6.2880   -2.2530    0.0000 H   0  0  0  0  0  0  0  0  0  0  0  0
    6.9056   -1.6307    0.0000 H   0  0  0  0  0  0  0  0  0  0  0  0
    2.3279    4.6521    0.0000 H   0  0  0  0  0  0  0  0  0  0  0  0
    2.0000    3.6295    0.0000 H   0  0  0  0  0  0  0  0  0  0  0  0
    8.5327    4.0656    0.0000 H   0  0  0  0  0  0  0  0  0  0  0  0
    5.7268    4.0548    0.0000 H   0  0  0  0  0  0  0  0  0  0  0  0
    8.5264    5.6856    0.0000 H   0  0  0  0  0  0  0  0  0  0  0  0
    5.7205    5.6748    0.0000 H   0  0  0  0  0  0  0  0  0  0  0  0
  1 46  1  0  0  0  0
  2 23  2  0  0  0  0
  3 33  2  0  0  0  0
  4 36  2  0  0  0  0
  5 37  2  0  0  0  0
  6 12  1  0  0  0  0
  6 16  1  0  0  0  0
  6 22  1  0  0  0  0
  7 24  1  0  0  0  0
  7 27  1  0  0  0  0
  7 33  1  0  0  0  0
  8 21  1  0  0  0  0
  8 25  1  0  0  0  0
  8 66  1  0  0  0  0
  9 23  1  0  0  0  0
 30  9  1  1  0  0  0
  9 68  1  0  0  0  0
 31 10  1  6  0  0  0
 10 36  1  0  0  0  0
 10 73  1  0  0  0  0
 11 37  1  0  0  0  0
 11 82  1  0  0  0  0
 11 83  1  0  0  0  0
 12 13  1  0  0  0  0
 12 14  1  0  0  0  0
 12 47  1  1  0  0  0
 13 18  1  0  0  0  0
 13 20  2  0  0  0  0
 14 17  1  0  0  0  0
 14 48  1  0  0  0  0
 14 49  1  0  0  0  0
 15 16  1  0  0  0  0
 15 20  1  0  0  0  0
 15 23  1  1  0  0  0
 15 50  1  0  0  0  0
 16 51  1  0  0  0  0
 16 52  1  0  0  0  0
 17 19  1  0  0  0  0
 17 25  2  0  0  0  0
 18 19  2  0  0  0  0
 18 29  1  0  0  0  0
 19 21  1  0  0  0  0
 20 53  1  0  0  0  0
 21 32  2  0  0  0  0
 22 54  1  0  0  0  0
 22 55  1  0  0  0  0
 22 56  1  0  0  0  0
 24 26  1  0  0  0  0
 24 37  1  1  0  0  0
 24 57  1  0  0  0  0
 25 58  1  0  0  0  0
 26 28  1  0  0  0  0
 26 59  1  0  0  0  0
 26 60  1  0  0  0  0
 27 28  1  0  0  0  0
 27 61  1  0  0  0  0
 27 62  1  0  0  0  0
 28 63  1  0  0  0  0
 28 64  1  0  0  0  0
 29 35  2  0  0  0  0
 29 65  1  0  0  0  0
 30 34  1  0  0  0  0
 30 36  1  0  0  0  0
 30 67  1  0  0  0  0
 31 33  1  0  0  0  0
 31 38  1  0  0  0  0
 31 69  1  0  0  0  0
 32 35  1  0  0  0  0
 32 70  1  0  0  0  0
 34 39  1  0  0  0  0
 34 40  1  0  0  0  0
 34 71  1  0  0  0  0
 35 72  1  0  0  0  0
 38 41  1  0  0  0  0
 38 74  1  0  0  0  0
 38 75  1  0  0  0  0
 39 76  1  0  0  0  0
 39 77  1  0  0  0  0
 39 78  1  0  0  0  0
 40 79  1  0  0  0  0
 40 80  1  0  0  0  0
 40 81  1  0  0  0  0
 41 42  2  0  0  0  0
 41 43  1  0  0  0  0
 42 44  1  0  0  0  0
 42 84  1  0  0  0  0
 43 45  2  0  0  0  0
 43 85  1  0  0  0  0
 44 46  2  0  0  0  0
 44 86  1  0  0  0  0
 45 46  1  0  0  0  0
 45 87  1  0  0  0  0
M  END
> <PUBCHEM_COMPOUND_CID>
16731518

> <PUBCHEM_COMPOUND_CANONICALIZED>
1

> <PUBCHEM_CACTVS_COMPLEXITY>
1200

> <PUBCHEM_CACTVS_HBOND_ACCEPTOR>
6

> <PUBCHEM_CACTVS_HBOND_DONOR>
4

> <PUBCHEM_CACTVS_ROTATABLE_BOND>
9

> <PUBCHEM_CACTVS_SUBSKEYS>
AAADcfB/uQAAAAAAAAAAAAAAAAAAAWLAAAAwYMEAAAAAAFjB9AAAHwAQAAAADSjBngw+wPPJkACoAzV3VACCgCAxAiAI2aG4ZJgIYPrA0bGUIAhglgDIyAcYicCOgAAAQAASAAAQAASAACQAAAAAAAAAAA==

> <PUBCHEM_IUPAC_OPENEYE_NAME>
(6aR,9R)-N-[(1S)-1-[[(1S)-2-[(2S)-2-carbamoylpyrrolidin-1-yl]-1-[(4-fluorophenyl)methyl]-2-oxo-ethyl]carbamoyl]-2-methyl-propyl]-7-methyl-6,6a,8,9-tetrahydro-4H-indolo[4,3-fg]quinoline-9-carboxamide

> <PUBCHEM_IUPAC_CAS_NAME>
(6aR,9R)-N-[(2S)-1-[[(2S)-1-[(2S)-2-carbamoyl-1-pyrrolidinyl]-3-(4-fluorophenyl)-1-oxopropan-2-yl]amino]-3-methyl-1-oxobutan-2-yl]-7-methyl-6,6a,8,9-tetrahydro-4H-indolo[4,3-fg]quinoline-9-carboxamide

> <PUBCHEM_IUPAC_NAME_MARKUP>
(6<I>a</I><I>R</I>,9<I>R</I>)-<I>N</I>-[(2<I>S</I>)-1-[[(2<I>S</I>)-1-[(2<I>S</I>)-2-carbamoylpyrrolidin-1-yl]-3-(4-fluorophenyl)-1-oxopropan-2-yl]amino]-3-methyl-1-oxobutan-2-yl]-7-methyl-6,6<I>a</I>,8,9-tetrahydro-4<I>H</I>-indolo[4,3-fg]quinoline-9-carboxamide

> <PUBCHEM_IUPAC_NAME>
(6aR,9R)-N-[(2S)-1-[[(2S)-1-[(2S)-2-carbamoylpyrrolidin-1-yl]-3-(4-fluorophenyl)-1-oxopropan-2-yl]amino]-3-methyl-1-oxobutan-2-yl]-7-methyl-6,6a,8,9-tetrahydro-4H-indolo[4,3-fg]quinoline-9-carboxamide

> <PUBCHEM_IUPAC_SYSTEMATIC_NAME>
(6aR,9R)-N-[(2S)-1-[[(2S)-1-[(2S)-2-aminocarbonylpyrrolidin-1-yl]-3-(4-fluorophenyl)-1-oxidanylidene-propan-2-yl]amino]-3-methyl-1-oxidanylidene-butan-2-yl]-7-methyl-6,6a,8,9-tetrahydro-4H-indolo[4,3-fg]quinoline-9-carboxamide

> <PUBCHEM_IUPAC_TRADITIONAL_NAME>
(6aR,9R)-N-[(1S)-1-[[(1S)-2-[(2S)-2-carbamoylpyrrolidino]-1-(4-fluorobenzyl)-2-keto-ethyl]carbamoyl]-2-methyl-propyl]-7-methyl-6,6a,8,9-tetrahydro-4H-indolo[4,3-fg]quinoline-9-carboxamide

> <PUBCHEM_IUPAC_INCHI>
InChI=1S/C35H41FN6O4/c1-19(2)31(34(45)39-27(14-20-9-11-23(36)12-10-20)35(46)42-13-5-8-28(42)32(37)43)40-33(44)22-15-25-24-6-4-7-26-30(24)21(17-38-26)16-29(25)41(3)18-22/h4,6-7,9-12,15,17,19,22,27-29,31,38H,5,8,13-14,16,18H2,1-3H3,(H2,37,43)(H,39,45)(H,40,44)/t22-,27+,28+,29-,31+/m1/s1

> <PUBCHEM_IUPAC_INCHIKEY>
VJRBXIHTQMRKQY-JXSIFGCMSA-N

> <PUBCHEM_XLOGP3_AA>
3.1

> <PUBCHEM_EXACT_MASS>
628.31733197

> <PUBCHEM_MOLECULAR_FORMULA>
C35H41FN6O4

> <PUBCHEM_MOLECULAR_WEIGHT>
628.7

> <PUBCHEM_OPENEYE_CAN_SMILES>
CC(C)C(C(=O)NC(CC1=CC=C(C=C1)F)C(=O)N2CCCC2C(=O)N)NC(=O)C3CN(C4CC5=CNC6=CC=CC(=C56)C4=C3)C

> <PUBCHEM_OPENEYE_ISO_SMILES>
CC(C)[C@@H](C(=O)N[C@@H](CC1=CC=C(C=C1)F)C(=O)N2CCC[C@H]2C(=O)N)NC(=O)[C@H]3CN([C@@H]4CC5=CNC6=CC=CC(=C56)C4=C3)C

> <PUBCHEM_CACTVS_TPSA>
141

> <PUBCHEM_MONOISOTOPIC_WEIGHT>
628.31733197

> <PUBCHEM_TOTAL_CHARGE>
0

> <PUBCHEM_HEAVY_ATOM_COUNT>
46

> <PUBCHEM_ATOM_DEF_STEREO_COUNT>
5

> <PUBCHEM_ATOM_UDEF_STEREO_COUNT>
0

> <PUBCHEM_BOND_DEF_STEREO_COUNT>
0

> <PUBCHEM_BOND_UDEF_STEREO_COUNT>
0

> <PUBCHEM_ISOTOPIC_ATOM_COUNT>
0

> <PUBCHEM_COMPONENT_COUNT>
1

> <PUBCHEM_CACTVS_TAUTO_COUNT>
-1

> <PUBCHEM_COORDINATE_TYPE>
1
5
255

> <PUBCHEM_BONDANNOTATIONS>
31  10  6
12  47  5
15  23  5
17  19  8
17  25  8
18  19  8
18  29  8
19  21  8
21  32  8
24  37  5
29  35  8
32  35  8
41  42  8
41  43  8
42  44  8
43  45  8
44  46  8
45  46  8
8  21  8
8  25  8
30  9  5

$$$$
