44454459
  -OEChem-09292322492D

 69 74  0     1  0  0  0  0  0999 V2000
    6.4300   -5.7697    0.0000 Br  0  0  0  0  0  0  0  0  0  0  0  0
    6.2062    1.3069    0.0000 S   0  0  0  0  0  0  0  0  0  0  0  0
    4.4887   -6.7415    0.0000 O   0  0  0  0  0  0  0  0  0  0  0  0
    6.2062   -2.1572    0.0000 N   0  0  3  0  0  0  0  0  0  0  0  0
    3.0949   -5.9368    0.0000 N   0  0  0  0  0  0  0  0  0  0  0  0
    7.7008    2.2774    0.0000 N   0  0  0  0  0  0  0  0  0  0  0  0
    6.2995    3.0865    0.0000 N   0  0  0  0  0  0  0  0  0  0  0  0
    7.0426    3.7556    0.0000 N   0  0  0  0  0  0  0  0  0  0  0  0
    9.9651    6.0977    0.0000 N   0  0  0  0  0  0  0  0  0  0  0  0
    6.7598   -2.9668    0.0000 C   0  0  0  0  0  0  0  0  0  0  0  0
    5.2283   -2.0826    0.0000 C   0  0  0  0  0  0  0  0  0  0  0  0
    6.4745   -3.9052    0.0000 C   0  0  0  0  0  0  0  0  0  0  0  0
    4.5583   -2.7989    0.0000 C   0  0  0  0  0  0  0  0  0  0  0  0
    5.5640   -4.2697    0.0000 C   0  0  0  0  0  0  0  0  0  0  0  0
    4.6979   -3.7697    0.0000 C   0  0  0  0  0  0  0  0  0  0  0  0
    6.7062   -1.2912    0.0000 C   0  0  0  0  0  0  0  0  0  0  0  0
    6.2062   -0.4252    0.0000 C   0  0  0  0  0  0  0  0  0  0  0  0
    5.5640   -5.2697    0.0000 C   0  0  0  0  0  0  0  0  0  0  0  0
    3.8319   -4.2697    0.0000 C   0  0  0  0  0  0  0  0  0  0  0  0
    4.6979   -5.7697    0.0000 C   0  0  0  0  0  0  0  0  0  0  0  0
    3.8319   -5.2697    0.0000 C   0  0  0  0  0  0  0  0  0  0  0  0
    6.7062    0.4409    0.0000 C   0  0  0  0  0  0  0  0  0  0  0  0
    3.5000   -6.8445    0.0000 C   0  0  0  0  0  0  0  0  0  0  0  0
    3.0000   -7.7106    0.0000 C   0  0  0  0  0  0  0  0  0  0  0  0
    6.7062    2.1729    0.0000 C   0  0  0  0  0  0  0  0  0  0  0  0
    7.9087    3.2556    0.0000 C   0  0  0  0  0  0  0  0  0  0  0  0
    2.0000   -7.7106    0.0000 C   0  0  0  0  0  0  0  0  0  0  0  0
    8.8222    3.6623    0.0000 C   0  0  0  0  0  0  0  0  0  0  0  0
    8.9267    4.6569    0.0000 C   0  0  0  0  0  0  0  0  0  0  0  0
    8.3699    1.5343    0.0000 C   0  0  0  0  0  0  0  0  0  0  0  0
    9.8403    5.0636    0.0000 C   0  0  0  0  0  0  0  0  0  0  0  0
    9.6312    3.0746    0.0000 C   0  0  0  0  0  0  0  0  0  0  0  0
    8.0747    5.2560    0.0000 C   0  0  0  0  0  0  0  0  0  0  0  0
   10.6493    4.4758    0.0000 C   0  0  0  0  0  0  0  0  0  0  0  0
   10.5448    3.4813    0.0000 C   0  0  0  0  0  0  0  0  0  0  0  0
    8.1756    6.2928    0.0000 C   0  0  0  0  0  0  0  0  0  0  0  0
    9.1272    6.7164    0.0000 C   0  0  0  0  0  0  0  0  0  0  0  0
    9.2355    7.7106    0.0000 C   0  0  0  0  0  0  0  0  0  0  0  0
    7.2977   -3.2751    0.0000 H   0  0  0  0  0  0  0  0  0  0  0  0
    7.1805   -2.5114    0.0000 H   0  0  0  0  0  0  0  0  0  0  0  0
    5.4124   -1.4906    0.0000 H   0  0  0  0  0  0  0  0  0  0  0  0
    4.6923   -1.7709    0.0000 H   0  0  0  0  0  0  0  0  0  0  0  0
    6.5705   -4.5177    0.0000 H   0  0  0  0  0  0  0  0  0  0  0  0
    7.0930   -3.9485    0.0000 H   0  0  0  0  0  0  0  0  0  0  0  0
    4.2116   -2.2849    0.0000 H   0  0  0  0  0  0  0  0  0  0  0  0
    3.9798   -3.0220    0.0000 H   0  0  0  0  0  0  0  0  0  0  0  0
    7.1812   -1.6897    0.0000 H   0  0  0  0  0  0  0  0  0  0  0  0
    7.1812   -0.8926    0.0000 H   0  0  0  0  0  0  0  0  0  0  0  0
    5.7313   -0.0266    0.0000 H   0  0  0  0  0  0  0  0  0  0  0  0
    5.7313   -0.8237    0.0000 H   0  0  0  0  0  0  0  0  0  0  0  0
    3.2950   -3.9597    0.0000 H   0  0  0  0  0  0  0  0  0  0  0  0
    7.1812    0.0423    0.0000 H   0  0  0  0  0  0  0  0  0  0  0  0
    7.1812    0.8394    0.0000 H   0  0  0  0  0  0  0  0  0  0  0  0
    2.8923   -8.3211    0.0000 H   0  0  0  0  0  0  0  0  0  0  0  0
    3.5826   -7.9226    0.0000 H   0  0  0  0  0  0  0  0  0  0  0  0
    2.0000   -7.0906    0.0000 H   0  0  0  0  0  0  0  0  0  0  0  0
    1.3800   -7.7106    0.0000 H   0  0  0  0  0  0  0  0  0  0  0  0
    2.0000   -8.3306    0.0000 H   0  0  0  0  0  0  0  0  0  0  0  0
    7.9091    1.1194    0.0000 H   0  0  0  0  0  0  0  0  0  0  0  0
    8.7848    1.0736    0.0000 H   0  0  0  0  0  0  0  0  0  0  0  0
    8.8306    1.9492    0.0000 H   0  0  0  0  0  0  0  0  0  0  0  0
    9.5664    2.4580    0.0000 H   0  0  0  0  0  0  0  0  0  0  0  0
    7.5113    4.9973    0.0000 H   0  0  0  0  0  0  0  0  0  0  0  0
   11.2157    4.7280    0.0000 H   0  0  0  0  0  0  0  0  0  0  0  0
   11.0464    3.1169    0.0000 H   0  0  0  0  0  0  0  0  0  0  0  0
    7.6726    6.6553    0.0000 H   0  0  0  0  0  0  0  0  0  0  0  0
    9.8519    7.6434    0.0000 H   0  0  0  0  0  0  0  0  0  0  0  0
    9.3027    8.3269    0.0000 H   0  0  0  0  0  0  0  0  0  0  0  0
    8.6192    7.7778    0.0000 H   0  0  0  0  0  0  0  0  0  0  0  0
  1 18  1  0  0  0  0
  2 22  1  0  0  0  0
  2 25  1  0  0  0  0
  3 20  1  0  0  0  0
  3 23  1  0  0  0  0
  4 10  1  0  0  0  0
  4 11  1  0  0  0  0
  4 16  1  0  0  0  0
  5 21  1  0  0  0  0
  5 23  2  0  0  0  0
  6 25  1  0  0  0  0
  6 26  1  0  0  0  0
  6 30  1  0  0  0  0
  7  8  1  0  0  0  0
  7 25  2  0  0  0  0
  8 26  2  0  0  0  0
  9 31  1  0  0  0  0
  9 37  2  0  0  0  0
 10 12  1  0  0  0  0
 10 39  1  0  0  0  0
 10 40  1  0  0  0  0
 11 13  1  0  0  0  0
 11 41  1  0  0  0  0
 11 42  1  0  0  0  0
 12 14  1  0  0  0  0
 12 43  1  0  0  0  0
 12 44  1  0  0  0  0
 13 15  1  0  0  0  0
 13 45  1  0  0  0  0
 13 46  1  0  0  0  0
 14 15  1  0  0  0  0
 14 18  2  0  0  0  0
 15 19  2  0  0  0  0
 16 17  1  0  0  0  0
 16 47  1  0  0  0  0
 16 48  1  0  0  0  0
 17 22  1  0  0  0  0
 17 49  1  0  0  0  0
 17 50  1  0  0  0  0
 18 20  1  0  0  0  0
 19 21  1  0  0  0  0
 19 51  1  0  0  0  0
 20 21  2  0  0  0  0
 22 52  1  0  0  0  0
 22 53  1  0  0  0  0
 23 24  1  0  0  0  0
 24 27  1  0  0  0  0
 24 54  1  0  0  0  0
 24 55  1  0  0  0  0
 26 28  1  0  0  0  0
 27 56  1  0  0  0  0
 27 57  1  0  0  0  0
 27 58  1  0  0  0  0
 28 29  2  0  0  0  0
 28 32  1  0  0  0  0
 29 31  1  0  0  0  0
 29 33  1  0  0  0  0
 30 59  1  0  0  0  0
 30 60  1  0  0  0  0
 30 61  1  0  0  0  0
 31 34  2  0  0  0  0
 32 35  2  0  0  0  0
 32 62  1  0  0  0  0
 33 36  2  0  0  0  0
 33 63  1  0  0  0  0
 34 35  1  0  0  0  0
 34 64  1  0  0  0  0
 35 65  1  0  0  0  0
 36 37  1  0  0  0  0
 36 66  1  0  0  0  0
 37 38  1  0  0  0  0
 38 67  1  0  0  0  0
 38 68  1  0  0  0  0
 38 69  1  0  0  0  0
M  END
> <PUBCHEM_COMPOUND_CID>
44454459

> <PUBCHEM_COMPOUND_CANONICALIZED>
1

> <PUBCHEM_CACTVS_COMPLEXITY>
781

> <PUBCHEM_CACTVS_HBOND_ACCEPTOR>
7

> <PUBCHEM_CACTVS_HBOND_DONOR>
0

> <PUBCHEM_CACTVS_ROTATABLE_BOND>
7

> <PUBCHEM_CACTVS_SUBSKEYS>
AAADceB7oABAEAAAAAAAAAAAAAAAAWLAAAA8YIAABYAAAFix/gAAHgRIAAABrAzF3wSz1vcMFEiqA6dydASS2CtvYrQd2CG9bPiuLvLkvbuPOSjkzBPY65eY2fKOqAABUAESlABQAAKgAiUoAAAAAAAAAA==

> <PUBCHEM_IUPAC_OPENEYE_NAME>
10-bromo-2-ethyl-7-[3-[[4-methyl-5-(2-methyl-5-quinolyl)-1,2,4-triazol-3-yl]sulfanyl]propyl]-5,6,8,9-tetrahydrooxazolo[4,5-h][3]benzazepine

> <PUBCHEM_IUPAC_CAS_NAME>
10-bromo-2-ethyl-7-[3-[[4-methyl-5-(2-methyl-5-quinolinyl)-1,2,4-triazol-3-yl]thio]propyl]-5,6,8,9-tetrahydrooxazolo[4,5-h][3]benzazepine

> <PUBCHEM_IUPAC_NAME_MARKUP>
10-bromo-2-ethyl-7-[3-[[4-methyl-5-(2-methylquinolin-5-yl)-1,2,4-triazol-3-yl]sulfanyl]propyl]-5,6,8,9-tetrahydro-[1,3]oxazolo[4,5-h][3]benzazepine

> <PUBCHEM_IUPAC_NAME>
10-bromo-2-ethyl-7-[3-[[4-methyl-5-(2-methylquinolin-5-yl)-1,2,4-triazol-3-yl]sulfanyl]propyl]-5,6,8,9-tetrahydro-[1,3]oxazolo[4,5-h][3]benzazepine

> <PUBCHEM_IUPAC_SYSTEMATIC_NAME>
10-bromanyl-2-ethyl-7-[3-[[4-methyl-5-(2-methylquinolin-5-yl)-1,2,4-triazol-3-yl]sulfanyl]propyl]-5,6,8,9-tetrahydro-[1,3]oxazolo[4,5-h][3]benzazepine

> <PUBCHEM_IUPAC_TRADITIONAL_NAME>
10-bromo-2-ethyl-7-[3-[[4-methyl-5-(2-methyl-5-quinolyl)-1,2,4-triazol-3-yl]thio]propyl]-5,6,8,9-tetrahydrooxazolo[4,5-h][3]benzazepine

> <PUBCHEM_IUPAC_INCHI>
InChI=1S/C29H31BrN6OS/c1-4-25-32-24-17-19-11-14-36(15-12-20(19)26(30)27(24)37-25)13-6-16-38-29-34-33-28(35(29)3)22-7-5-8-23-21(22)10-9-18(2)31-23/h5,7-10,17H,4,6,11-16H2,1-3H3

> <PUBCHEM_IUPAC_INCHIKEY>
VYZFKCYKUBTWCJ-UHFFFAOYSA-N

> <PUBCHEM_XLOGP3_AA>
6.4

> <PUBCHEM_EXACT_MASS>
590.14634

> <PUBCHEM_MOLECULAR_FORMULA>
C29H31BrN6OS

> <PUBCHEM_MOLECULAR_WEIGHT>
591.6

> <PUBCHEM_OPENEYE_CAN_SMILES>
CCC1=NC2=C(O1)C(=C3CCN(CCC3=C2)CCCSC4=NN=C(N4C)C5=C6C=CC(=NC6=CC=C5)C)Br

> <PUBCHEM_OPENEYE_ISO_SMILES>
CCC1=NC2=C(O1)C(=C3CCN(CCC3=C2)CCCSC4=NN=C(N4C)C5=C6C=CC(=NC6=CC=C5)C)Br

> <PUBCHEM_CACTVS_TPSA>
98.2

> <PUBCHEM_MONOISOTOPIC_WEIGHT>
590.14634

> <PUBCHEM_TOTAL_CHARGE>
0

> <PUBCHEM_HEAVY_ATOM_COUNT>
38

> <PUBCHEM_ATOM_DEF_STEREO_COUNT>
0

> <PUBCHEM_ATOM_UDEF_STEREO_COUNT>
0

> <PUBCHEM_BOND_DEF_STEREO_COUNT>
0

> <PUBCHEM_BOND_UDEF_STEREO_COUNT>
0

> <PUBCHEM_ISOTOPIC_ATOM_COUNT>
0

> <PUBCHEM_COMPONENT_COUNT>
1

> <PUBCHEM_CACTVS_TAUTO_COUNT>
-1

> <PUBCHEM_COORDINATE_TYPE>
1
5
255

> <PUBCHEM_BONDANNOTATIONS>
14  15  8
14  18  8
15  19  8
18  20  8
19  21  8
20  21  8
28  29  8
28  32  8
29  31  8
29  33  8
3  20  8
3  23  8
31  34  8
32  35  8
33  36  8
34  35  8
36  37  8
5  21  8
5  23  8
6  25  8
6  26  8
7  25  8
7  8  8
8  26  8
9  31  8
9  37  8

$$$$
