11627847
  -OEChem-09292322492D

 72 77  0     1  0  0  0  0  0999 V2000
    9.2062    0.8739    0.0000 S   0  0  0  0  0  0  0  0  0  0  0  0
    4.4887   -5.4424    0.0000 O   0  0  0  0  0  0  0  0  0  0  0  0
    6.2062   -0.8582    0.0000 N   0  0  3  0  0  0  0  0  0  0  0  0
    3.0949   -4.6377    0.0000 N   0  0  0  0  0  0  0  0  0  0  0  0
   10.7008    1.8444    0.0000 N   0  0  0  0  0  0  0  0  0  0  0  0
    9.2995    2.6535    0.0000 N   0  0  0  0  0  0  0  0  0  0  0  0
   10.0426    3.3226    0.0000 N   0  0  0  0  0  0  0  0  0  0  0  0
   12.9651    5.6647    0.0000 N   0  0  0  0  0  0  0  0  0  0  0  0
    6.7598   -1.6678    0.0000 C   0  0  0  0  0  0  0  0  0  0  0  0
    5.2283   -0.7836    0.0000 C   0  0  0  0  0  0  0  0  0  0  0  0
    6.4745   -2.6062    0.0000 C   0  0  0  0  0  0  0  0  0  0  0  0
    4.5583   -1.4998    0.0000 C   0  0  0  0  0  0  0  0  0  0  0  0
    5.5640   -2.9706    0.0000 C   0  0  0  0  0  0  0  0  0  0  0  0
    4.6979   -2.4706    0.0000 C   0  0  0  0  0  0  0  0  0  0  0  0
    6.7062    0.0079    0.0000 C   0  0  0  0  0  0  0  0  0  0  0  0
    7.7062    0.0079    0.0000 C   0  0  0  0  0  0  0  0  0  0  0  0
    5.5640   -3.9706    0.0000 C   0  0  0  0  0  0  0  0  0  0  0  0
    3.8319   -2.9706    0.0000 C   0  0  0  0  0  0  0  0  0  0  0  0
    4.6979   -4.4706    0.0000 C   0  0  0  0  0  0  0  0  0  0  0  0
    3.8319   -3.9706    0.0000 C   0  0  0  0  0  0  0  0  0  0  0  0
    8.2062    0.8739    0.0000 C   0  0  0  0  0  0  0  0  0  0  0  0
    3.5000   -5.5455    0.0000 C   0  0  0  0  0  0  0  0  0  0  0  0
    3.0000   -6.4115    0.0000 C   0  0  0  0  0  0  0  0  0  0  0  0
    2.0000   -6.4115    0.0000 C   0  0  0  0  0  0  0  0  0  0  0  0
    3.5000   -7.2776    0.0000 C   0  0  0  0  0  0  0  0  0  0  0  0
    9.7062    1.7399    0.0000 C   0  0  0  0  0  0  0  0  0  0  0  0
   10.9087    2.8226    0.0000 C   0  0  0  0  0  0  0  0  0  0  0  0
   11.8222    3.2293    0.0000 C   0  0  0  0  0  0  0  0  0  0  0  0
   11.9267    4.2238    0.0000 C   0  0  0  0  0  0  0  0  0  0  0  0
   11.3699    1.1013    0.0000 C   0  0  0  0  0  0  0  0  0  0  0  0
   12.8403    4.6306    0.0000 C   0  0  0  0  0  0  0  0  0  0  0  0
   12.6312    2.6415    0.0000 C   0  0  0  0  0  0  0  0  0  0  0  0
   11.0747    4.8230    0.0000 C   0  0  0  0  0  0  0  0  0  0  0  0
   13.6493    4.0428    0.0000 C   0  0  0  0  0  0  0  0  0  0  0  0
   13.5448    3.0483    0.0000 C   0  0  0  0  0  0  0  0  0  0  0  0
   11.1756    5.8598    0.0000 C   0  0  0  0  0  0  0  0  0  0  0  0
   12.1272    6.2834    0.0000 C   0  0  0  0  0  0  0  0  0  0  0  0
   12.2355    7.2776    0.0000 C   0  0  0  0  0  0  0  0  0  0  0  0
    7.2977   -1.9761    0.0000 H   0  0  0  0  0  0  0  0  0  0  0  0
    7.1805   -1.2124    0.0000 H   0  0  0  0  0  0  0  0  0  0  0  0
    5.4124   -0.1915    0.0000 H   0  0  0  0  0  0  0  0  0  0  0  0
    4.6923   -0.4719    0.0000 H   0  0  0  0  0  0  0  0  0  0  0  0
    6.5705   -3.2187    0.0000 H   0  0  0  0  0  0  0  0  0  0  0  0
    7.0930   -2.6494    0.0000 H   0  0  0  0  0  0  0  0  0  0  0  0
    4.2116   -0.9858    0.0000 H   0  0  0  0  0  0  0  0  0  0  0  0
    3.9798   -1.7230    0.0000 H   0  0  0  0  0  0  0  0  0  0  0  0
    6.8139    0.6184    0.0000 H   0  0  0  0  0  0  0  0  0  0  0  0
    6.1236    0.2199    0.0000 H   0  0  0  0  0  0  0  0  0  0  0  0
    7.5986   -0.6027    0.0000 H   0  0  0  0  0  0  0  0  0  0  0  0
    8.2888   -0.2042    0.0000 H   0  0  0  0  0  0  0  0  0  0  0  0
    6.1009   -4.2806    0.0000 H   0  0  0  0  0  0  0  0  0  0  0  0
    3.2950   -2.6606    0.0000 H   0  0  0  0  0  0  0  0  0  0  0  0
    8.3139    1.4845    0.0000 H   0  0  0  0  0  0  0  0  0  0  0  0
    7.6236    1.0859    0.0000 H   0  0  0  0  0  0  0  0  0  0  0  0
    3.6200   -6.4115    0.0000 H   0  0  0  0  0  0  0  0  0  0  0  0
    2.0000   -5.7915    0.0000 H   0  0  0  0  0  0  0  0  0  0  0  0
    1.3800   -6.4115    0.0000 H   0  0  0  0  0  0  0  0  0  0  0  0
    2.0000   -7.0315    0.0000 H   0  0  0  0  0  0  0  0  0  0  0  0
    2.9631   -7.5876    0.0000 H   0  0  0  0  0  0  0  0  0  0  0  0
    3.8100   -7.8145    0.0000 H   0  0  0  0  0  0  0  0  0  0  0  0
    4.0369   -6.9676    0.0000 H   0  0  0  0  0  0  0  0  0  0  0  0
   10.9091    0.6864    0.0000 H   0  0  0  0  0  0  0  0  0  0  0  0
   11.7847    0.6405    0.0000 H   0  0  0  0  0  0  0  0  0  0  0  0
   11.8306    1.5162    0.0000 H   0  0  0  0  0  0  0  0  0  0  0  0
   12.5664    2.0249    0.0000 H   0  0  0  0  0  0  0  0  0  0  0  0
   10.5113    4.5643    0.0000 H   0  0  0  0  0  0  0  0  0  0  0  0
   14.2157    4.2950    0.0000 H   0  0  0  0  0  0  0  0  0  0  0  0
   14.0464    2.6838    0.0000 H   0  0  0  0  0  0  0  0  0  0  0  0
   10.6726    6.2223    0.0000 H   0  0  0  0  0  0  0  0  0  0  0  0
   12.8519    7.2104    0.0000 H   0  0  0  0  0  0  0  0  0  0  0  0
   12.3027    7.8939    0.0000 H   0  0  0  0  0  0  0  0  0  0  0  0
   11.6192    7.3447    0.0000 H   0  0  0  0  0  0  0  0  0  0  0  0
  1 21  1  0  0  0  0
  1 26  1  0  0  0  0
  2 19  1  0  0  0  0
  2 22  1  0  0  0  0
  3  9  1  0  0  0  0
  3 10  1  0  0  0  0
  3 15  1  0  0  0  0
  4 20  1  0  0  0  0
  4 22  2  0  0  0  0
  5 26  1  0  0  0  0
  5 27  1  0  0  0  0
  5 30  1  0  0  0  0
  6  7  1  0  0  0  0
  6 26  2  0  0  0  0
  7 27  2  0  0  0  0
  8 31  1  0  0  0  0
  8 37  2  0  0  0  0
  9 11  1  0  0  0  0
  9 39  1  0  0  0  0
  9 40  1  0  0  0  0
 10 12  1  0  0  0  0
 10 41  1  0  0  0  0
 10 42  1  0  0  0  0
 11 13  1  0  0  0  0
 11 43  1  0  0  0  0
 11 44  1  0  0  0  0
 12 14  1  0  0  0  0
 12 45  1  0  0  0  0
 12 46  1  0  0  0  0
 13 14  1  0  0  0  0
 13 17  2  0  0  0  0
 14 18  2  0  0  0  0
 15 16  1  0  0  0  0
 15 47  1  0  0  0  0
 15 48  1  0  0  0  0
 16 21  1  0  0  0  0
 16 49  1  0  0  0  0
 16 50  1  0  0  0  0
 17 19  1  0  0  0  0
 17 51  1  0  0  0  0
 18 20  1  0  0  0  0
 18 52  1  0  0  0  0
 19 20  2  0  0  0  0
 21 53  1  0  0  0  0
 21 54  1  0  0  0  0
 22 23  1  0  0  0  0
 23 24  1  0  0  0  0
 23 25  1  0  0  0  0
 23 55  1  0  0  0  0
 24 56  1  0  0  0  0
 24 57  1  0  0  0  0
 24 58  1  0  0  0  0
 25 59  1  0  0  0  0
 25 60  1  0  0  0  0
 25 61  1  0  0  0  0
 27 28  1  0  0  0  0
 28 29  2  0  0  0  0
 28 32  1  0  0  0  0
 29 31  1  0  0  0  0
 29 33  1  0  0  0  0
 30 62  1  0  0  0  0
 30 63  1  0  0  0  0
 30 64  1  0  0  0  0
 31 34  2  0  0  0  0
 32 35  2  0  0  0  0
 32 65  1  0  0  0  0
 33 36  2  0  0  0  0
 33 66  1  0  0  0  0
 34 35  1  0  0  0  0
 34 67  1  0  0  0  0
 35 68  1  0  0  0  0
 36 37  1  0  0  0  0
 36 69  1  0  0  0  0
 37 38  1  0  0  0  0
 38 70  1  0  0  0  0
 38 71  1  0  0  0  0
 38 72  1  0  0  0  0
M  END
> <PUBCHEM_COMPOUND_CID>
11627847

> <PUBCHEM_COMPOUND_CANONICALIZED>
1

> <PUBCHEM_CACTVS_COMPLEXITY>
773

> <PUBCHEM_CACTVS_HBOND_ACCEPTOR>
7

> <PUBCHEM_CACTVS_HBOND_DONOR>
0

> <PUBCHEM_CACTVS_ROTATABLE_BOND>
7

> <PUBCHEM_CACTVS_SUBSKEYS>
AAADcfB7oABAAAAAAAAAAAAAAAAAAWLAAAA8YIAABYAAAFix/gAAHgQIAAAADQzF3wSz1vcMFEiqA6dydASS2CtvYrAd2CG/bNiOLvLkvbuPOSjkzBPY6YeY2fKOqAABQAASEABQAAKAACQgAAAAAAAAAA==

> <PUBCHEM_IUPAC_OPENEYE_NAME>
2-isopropyl-7-[3-[[4-methyl-5-(2-methyl-5-quinolyl)-1,2,4-triazol-3-yl]sulfanyl]propyl]-5,6,8,9-tetrahydrooxazolo[4,5-h][3]benzazepine

> <PUBCHEM_IUPAC_CAS_NAME>
7-[3-[[4-methyl-5-(2-methyl-5-quinolinyl)-1,2,4-triazol-3-yl]thio]propyl]-2-propan-2-yl-5,6,8,9-tetrahydrooxazolo[4,5-h][3]benzazepine

> <PUBCHEM_IUPAC_NAME_MARKUP>
7-[3-[[4-methyl-5-(2-methylquinolin-5-yl)-1,2,4-triazol-3-yl]sulfanyl]propyl]-2-propan-2-yl-5,6,8,9-tetrahydro-[1,3]oxazolo[4,5-h][3]benzazepine

> <PUBCHEM_IUPAC_NAME>
7-[3-[[4-methyl-5-(2-methylquinolin-5-yl)-1,2,4-triazol-3-yl]sulfanyl]propyl]-2-propan-2-yl-5,6,8,9-tetrahydro-[1,3]oxazolo[4,5-h][3]benzazepine

> <PUBCHEM_IUPAC_SYSTEMATIC_NAME>
7-[3-[[4-methyl-5-(2-methylquinolin-5-yl)-1,2,4-triazol-3-yl]sulfanyl]propyl]-2-propan-2-yl-5,6,8,9-tetrahydro-[1,3]oxazolo[4,5-h][3]benzazepine

> <PUBCHEM_IUPAC_TRADITIONAL_NAME>
2-isopropyl-7-[3-[[4-methyl-5-(2-methyl-5-quinolyl)-1,2,4-triazol-3-yl]thio]propyl]-5,6,8,9-tetrahydrooxazolo[4,5-h][3]benzazepine

> <PUBCHEM_IUPAC_INCHI>
InChI=1S/C30H34N6OS/c1-19(2)29-32-26-17-21-11-14-36(15-12-22(21)18-27(26)37-29)13-6-16-38-30-34-33-28(35(30)4)24-7-5-8-25-23(24)10-9-20(3)31-25/h5,7-10,17-19H,6,11-16H2,1-4H3

> <PUBCHEM_IUPAC_INCHIKEY>
NRQJARQPULKWBG-UHFFFAOYSA-N

> <PUBCHEM_XLOGP3_AA>
6

> <PUBCHEM_EXACT_MASS>
526.25148090

> <PUBCHEM_MOLECULAR_FORMULA>
C30H34N6OS

> <PUBCHEM_MOLECULAR_WEIGHT>
526.7

> <PUBCHEM_OPENEYE_CAN_SMILES>
CC1=NC2=CC=CC(=C2C=C1)C3=NN=C(N3C)SCCCN4CCC5=CC6=C(C=C5CC4)OC(=N6)C(C)C

> <PUBCHEM_OPENEYE_ISO_SMILES>
CC1=NC2=CC=CC(=C2C=C1)C3=NN=C(N3C)SCCCN4CCC5=CC6=C(C=C5CC4)OC(=N6)C(C)C

> <PUBCHEM_CACTVS_TPSA>
98.2

> <PUBCHEM_MONOISOTOPIC_WEIGHT>
526.25148090

> <PUBCHEM_TOTAL_CHARGE>
0

> <PUBCHEM_HEAVY_ATOM_COUNT>
38

> <PUBCHEM_ATOM_DEF_STEREO_COUNT>
0

> <PUBCHEM_ATOM_UDEF_STEREO_COUNT>
0

> <PUBCHEM_BOND_DEF_STEREO_COUNT>
0

> <PUBCHEM_BOND_UDEF_STEREO_COUNT>
0

> <PUBCHEM_ISOTOPIC_ATOM_COUNT>
0

> <PUBCHEM_COMPONENT_COUNT>
1

> <PUBCHEM_CACTVS_TAUTO_COUNT>
-1

> <PUBCHEM_COORDINATE_TYPE>
1
5
255

> <PUBCHEM_BONDANNOTATIONS>
13  14  8
13  17  8
14  18  8
17  19  8
18  20  8
19  20  8
2  19  8
2  22  8
28  29  8
28  32  8
29  31  8
29  33  8
31  34  8
32  35  8
33  36  8
34  35  8
36  37  8
4  20  8
4  22  8
5  26  8
5  27  8
6  26  8
6  7  8
7  27  8
8  31  8
8  37  8

$$$$
