11639064
  -OEChem-09292322242D

 48 52  0     1  0  0  0  0  0999 V2000
    4.3198   -0.4076    0.0000 O   0  0  0  0  0  0  0  0  0  0  0  0
    2.5381   -1.4180    0.0000 O   0  0  0  0  0  0  0  0  0  0  0  0
    6.9348    4.1270    0.0000 O   0  0  0  0  0  0  0  0  0  0  0  0
    7.7925   -3.4391    0.0000 N   0  0  3  0  0  0  0  0  0  0  0  0
    6.9343   -2.9422    0.0000 C   0  0  1  0  0  0  0  0  0  0  0  0
    6.9343   -1.9422    0.0000 C   0  0  0  0  0  0  0  0  0  0  0  0
    6.0682   -3.4422    0.0000 C   0  0  0  0  0  0  0  0  0  0  0  0
    7.8443   -1.4353    0.0000 C   0  0  0  0  0  0  0  0  0  0  0  0
    8.6580   -2.9550    0.0000 C   0  0  0  0  0  0  0  0  0  0  0  0
    6.0682   -1.4422    0.0000 C   0  0  0  0  0  0  0  0  0  0  0  0
    8.6836   -1.9636    0.0000 C   0  0  0  0  0  0  0  0  0  0  0  0
    5.2022   -2.9422    0.0000 C   0  0  0  0  0  0  0  0  0  0  0  0
    5.2022   -1.9422    0.0000 C   0  0  0  0  0  0  0  0  0  0  0  0
    7.8523   -0.3938    0.0000 C   0  0  0  0  0  0  0  0  0  0  0  0
    6.0522   -0.4007    0.0000 C   0  0  0  0  0  0  0  0  0  0  0  0
    7.7851   -4.4391    0.0000 C   0  0  0  0  0  0  0  0  0  0  0  0
    6.9502    0.1271    0.0000 C   0  0  0  0  0  0  0  0  0  0  0  0
    4.3083   -1.4075    0.0000 C   0  0  0  0  0  0  0  0  0  0  0  0
    4.3083   -3.4769    0.0000 C   0  0  0  0  0  0  0  0  0  0  0  0
    3.4022   -1.9214    0.0000 C   0  0  0  0  0  0  0  0  0  0  0  0
    6.9464    1.1271    0.0000 C   0  0  0  0  0  0  0  0  0  0  0  0
    3.4022   -2.9630    0.0000 C   0  0  0  0  0  0  0  0  0  0  0  0
    6.0784    1.6237    0.0000 C   0  0  0  0  0  0  0  0  0  0  0  0
    7.8105    1.6304    0.0000 C   0  0  0  0  0  0  0  0  0  0  0  0
    6.0746    2.6237    0.0000 C   0  0  0  0  0  0  0  0  0  0  0  0
    7.8066    2.6304    0.0000 C   0  0  0  0  0  0  0  0  0  0  0  0
    6.9387    3.1270    0.0000 C   0  0  0  0  0  0  0  0  0  0  0  0
    6.9337   -3.7922    0.0000 H   0  0  0  0  0  0  0  0  0  0  0  0
    5.6697   -3.9172    0.0000 H   0  0  0  0  0  0  0  0  0  0  0  0
    6.4668   -3.9172    0.0000 H   0  0  0  0  0  0  0  0  0  0  0  0
    8.8597   -3.5412    0.0000 H   0  0  0  0  0  0  0  0  0  0  0  0
    9.2708   -2.8606    0.0000 H   0  0  0  0  0  0  0  0  0  0  0  0
    9.2907   -2.0895    0.0000 H   0  0  0  0  0  0  0  0  0  0  0  0
    8.9154   -1.3885    0.0000 H   0  0  0  0  0  0  0  0  0  0  0  0
    8.3904   -0.0858    0.0000 H   0  0  0  0  0  0  0  0  0  0  0  0
    5.5117   -0.0969    0.0000 H   0  0  0  0  0  0  0  0  0  0  0  0
    7.1651   -4.4345    0.0000 H   0  0  0  0  0  0  0  0  0  0  0  0
    7.7805   -5.0591    0.0000 H   0  0  0  0  0  0  0  0  0  0  0  0
    8.4051   -4.4437    0.0000 H   0  0  0  0  0  0  0  0  0  0  0  0
    4.3154   -4.0968    0.0000 H   0  0  0  0  0  0  0  0  0  0  0  0
    2.8665   -3.2751    0.0000 H   0  0  0  0  0  0  0  0  0  0  0  0
    3.7865   -0.0914    0.0000 H   0  0  0  0  0  0  0  0  0  0  0  0
    5.5427    1.3116    0.0000 H   0  0  0  0  0  0  0  0  0  0  0  0
    8.3486    1.3225    0.0000 H   0  0  0  0  0  0  0  0  0  0  0  0
    2.0000   -1.7260    0.0000 H   0  0  0  0  0  0  0  0  0  0  0  0
    5.5364    2.9316    0.0000 H   0  0  0  0  0  0  0  0  0  0  0  0
    8.3424    2.9424    0.0000 H   0  0  0  0  0  0  0  0  0  0  0  0
    7.4706    4.4391    0.0000 H   0  0  0  0  0  0  0  0  0  0  0  0
  1 18  1  0  0  0  0
  1 42  1  0  0  0  0
  2 20  1  0  0  0  0
  2 45  1  0  0  0  0
  3 27  1  0  0  0  0
  3 48  1  0  0  0  0
  4  5  1  0  0  0  0
  4  9  1  0  0  0  0
  4 16  1  0  0  0  0
  5  6  1  0  0  0  0
  5  7  1  0  0  0  0
  5 28  1  1  0  0  0
  6  8  2  0  0  0  0
  6 10  1  0  0  0  0
  7 12  1  0  0  0  0
  7 29  1  0  0  0  0
  7 30  1  0  0  0  0
  8 11  1  0  0  0  0
  8 14  1  0  0  0  0
  9 11  1  0  0  0  0
  9 31  1  0  0  0  0
  9 32  1  0  0  0  0
 10 13  1  0  0  0  0
 10 15  2  0  0  0  0
 11 33  1  0  0  0  0
 11 34  1  0  0  0  0
 12 13  2  0  0  0  0
 12 19  1  0  0  0  0
 13 18  1  0  0  0  0
 14 17  2  0  0  0  0
 14 35  1  0  0  0  0
 15 17  1  0  0  0  0
 15 36  1  0  0  0  0
 16 37  1  0  0  0  0
 16 38  1  0  0  0  0
 16 39  1  0  0  0  0
 17 21  1  0  0  0  0
 18 20  2  0  0  0  0
 19 22  2  0  0  0  0
 19 40  1  0  0  0  0
 20 22  1  0  0  0  0
 21 23  2  0  0  0  0
 21 24  1  0  0  0  0
 22 41  1  0  0  0  0
 23 25  1  0  0  0  0
 23 43  1  0  0  0  0
 24 26  2  0  0  0  0
 24 44  1  0  0  0  0
 25 27  2  0  0  0  0
 25 46  1  0  0  0  0
 26 27  1  0  0  0  0
 26 47  1  0  0  0  0
M  END
> <PUBCHEM_COMPOUND_CID>
11639064

> <PUBCHEM_COMPOUND_CANONICALIZED>
1

> <PUBCHEM_CACTVS_COMPLEXITY>
534

> <PUBCHEM_CACTVS_HBOND_ACCEPTOR>
4

> <PUBCHEM_CACTVS_HBOND_DONOR>
3

> <PUBCHEM_CACTVS_ROTATABLE_BOND>
1

> <PUBCHEM_CACTVS_SUBSKEYS>
AAADceB6MAAAAAAAAAAAAAAAAAAAAAAAAAA8YMGCAAAAAADxUAAAHgAACAAADCzBmAQyBoMAAgCAAiBCAACCAAAgIAAIiAAOjIgJJiKCkROEcAlkwBGJmAeQ0PMO4AADAAAYQADQAAaAADSAAAAAAAAAAA==

> <PUBCHEM_IUPAC_OPENEYE_NAME>
(6aR)-2-(4-hydroxyphenyl)-6-methyl-5,6,6a,7-tetrahydro-4H-dibenzo[de,g]quinoline-10,11-diol

> <PUBCHEM_IUPAC_CAS_NAME>
(6aR)-2-(4-hydroxyphenyl)-6-methyl-5,6,6a,7-tetrahydro-4H-dibenzo[de,g]quinoline-10,11-diol

> <PUBCHEM_IUPAC_NAME_MARKUP>
(6<I>a</I><I>R</I>)-2-(4-hydroxyphenyl)-6-methyl-5,6,6<I>a</I>,7-tetrahydro-4<I>H</I>-dibenzo[de,g]quinoline-10,11-diol

> <PUBCHEM_IUPAC_NAME>
(6aR)-2-(4-hydroxyphenyl)-6-methyl-5,6,6a,7-tetrahydro-4H-dibenzo[de,g]quinoline-10,11-diol

> <PUBCHEM_IUPAC_SYSTEMATIC_NAME>
(6aR)-2-(4-hydroxyphenyl)-6-methyl-5,6,6a,7-tetrahydro-4H-dibenzo[de,g]quinoline-10,11-diol

> <PUBCHEM_IUPAC_TRADITIONAL_NAME>
(6aR)-2-(4-hydroxyphenyl)-6-methyl-5,6,6a,7-tetrahydro-4H-dibenzo[de,g]quinoline-10,11-diol

> <PUBCHEM_IUPAC_INCHI>
InChI=1S/C23H21NO3/c1-24-9-8-15-10-16(13-2-5-17(25)6-3-13)11-18-21(15)19(24)12-14-4-7-20(26)23(27)22(14)18/h2-7,10-11,19,25-27H,8-9,12H2,1H3/t19-/m1/s1

> <PUBCHEM_IUPAC_INCHIKEY>
IEYKUJATGFZIHM-LJQANCHMSA-N

> <PUBCHEM_XLOGP3>
3.6

> <PUBCHEM_EXACT_MASS>
359.15214353

> <PUBCHEM_MOLECULAR_FORMULA>
C23H21NO3

> <PUBCHEM_MOLECULAR_WEIGHT>
359.4

> <PUBCHEM_OPENEYE_CAN_SMILES>
CN1CCC2=C3C1CC4=C(C3=CC(=C2)C5=CC=C(C=C5)O)C(=C(C=C4)O)O

> <PUBCHEM_OPENEYE_ISO_SMILES>
CN1CCC2=C3[C@H]1CC4=C(C3=CC(=C2)C5=CC=C(C=C5)O)C(=C(C=C4)O)O

> <PUBCHEM_CACTVS_TPSA>
63.9

> <PUBCHEM_MONOISOTOPIC_WEIGHT>
359.15214353

> <PUBCHEM_TOTAL_CHARGE>
0

> <PUBCHEM_HEAVY_ATOM_COUNT>
27

> <PUBCHEM_ATOM_DEF_STEREO_COUNT>
1

> <PUBCHEM_ATOM_UDEF_STEREO_COUNT>
0

> <PUBCHEM_BOND_DEF_STEREO_COUNT>
0

> <PUBCHEM_BOND_UDEF_STEREO_COUNT>
0

> <PUBCHEM_ISOTOPIC_ATOM_COUNT>
0

> <PUBCHEM_COMPONENT_COUNT>
1

> <PUBCHEM_CACTVS_TAUTO_COUNT>
-1

> <PUBCHEM_COORDINATE_TYPE>
1
5
255

> <PUBCHEM_BONDANNOTATIONS>
10  15  8
12  13  8
12  19  8
13  18  8
14  17  8
15  17  8
18  20  8
19  22  8
20  22  8
21  23  8
21  24  8
23  25  8
24  26  8
25  27  8
26  27  8
5  28  5
6  10  8
6  8  8
8  14  8

$$$$
