11496746
  -OEChem-09292322492D

 63 68  0     1  0  0  0  0  0999 V2000
    7.2062    3.2382    0.0000 S   0  0  0  0  0  0  0  0  0  0  0  0
    3.4887   -3.0781    0.0000 O   0  0  0  0  0  0  0  0  0  0  0  0
    5.2062    1.5062    0.0000 N   0  0  3  0  0  0  0  0  0  0  0  0
    2.0949   -2.2734    0.0000 N   0  0  0  0  0  0  0  0  0  0  0  0
    8.7940    2.4292    0.0000 N   0  0  0  0  0  0  0  0  0  0  0  0
    8.7940    4.0472    0.0000 N   0  0  0  0  0  0  0  0  0  0  0  0
    9.7451    3.7382    0.0000 N   0  0  0  0  0  0  0  0  0  0  0  0
   13.2347    2.3783    0.0000 N   0  0  0  0  0  0  0  0  0  0  0  0
    5.7598    0.6965    0.0000 C   0  0  0  0  0  0  0  0  0  0  0  0
    4.2283    1.5808    0.0000 C   0  0  0  0  0  0  0  0  0  0  0  0
    5.4745   -0.2419    0.0000 C   0  0  0  0  0  0  0  0  0  0  0  0
    3.5583    0.8645    0.0000 C   0  0  0  0  0  0  0  0  0  0  0  0
    4.5640   -0.6063    0.0000 C   0  0  0  0  0  0  0  0  0  0  0  0
    3.6979   -0.1063    0.0000 C   0  0  0  0  0  0  0  0  0  0  0  0
    5.7062    2.3722    0.0000 C   0  0  0  0  0  0  0  0  0  0  0  0
    4.5640   -1.6063    0.0000 C   0  0  0  0  0  0  0  0  0  0  0  0
    2.8319   -0.6063    0.0000 C   0  0  0  0  0  0  0  0  0  0  0  0
    6.7062    2.3722    0.0000 C   0  0  0  0  0  0  0  0  0  0  0  0
    3.6979   -2.1063    0.0000 C   0  0  0  0  0  0  0  0  0  0  0  0
    2.8319   -1.6063    0.0000 C   0  0  0  0  0  0  0  0  0  0  0  0
    2.5000   -3.1812    0.0000 C   0  0  0  0  0  0  0  0  0  0  0  0
    8.2062    3.2382    0.0000 C   0  0  0  0  0  0  0  0  0  0  0  0
    9.7451    2.7382    0.0000 C   0  0  0  0  0  0  0  0  0  0  0  0
    2.0000   -4.0472    0.0000 C   0  0  0  0  0  0  0  0  0  0  0  0
   10.5541    2.1504    0.0000 C   0  0  0  0  0  0  0  0  0  0  0  0
   11.4676    2.5572    0.0000 C   0  0  0  0  0  0  0  0  0  0  0  0
    8.4850    1.4781    0.0000 C   0  0  0  0  0  0  0  0  0  0  0  0
   12.2767    1.9694    0.0000 C   0  0  0  0  0  0  0  0  0  0  0  0
   10.4496    1.1559    0.0000 C   0  0  0  0  0  0  0  0  0  0  0  0
   11.5605    3.5946    0.0000 C   0  0  0  0  0  0  0  0  0  0  0  0
   12.1721    0.9748    0.0000 C   0  0  0  0  0  0  0  0  0  0  0  0
   11.2586    0.5681    0.0000 C   0  0  0  0  0  0  0  0  0  0  0  0
   12.5088    4.0256    0.0000 C   0  0  0  0  0  0  0  0  0  0  0  0
   13.3515    3.4134    0.0000 C   0  0  0  0  0  0  0  0  0  0  0  0
   14.2666    3.8166    0.0000 C   0  0  0  0  0  0  0  0  0  0  0  0
    6.2977    0.3882    0.0000 H   0  0  0  0  0  0  0  0  0  0  0  0
    6.1805    1.1520    0.0000 H   0  0  0  0  0  0  0  0  0  0  0  0
    4.4124    2.1728    0.0000 H   0  0  0  0  0  0  0  0  0  0  0  0
    3.6923    1.8924    0.0000 H   0  0  0  0  0  0  0  0  0  0  0  0
    5.5705   -0.8544    0.0000 H   0  0  0  0  0  0  0  0  0  0  0  0
    6.0930   -0.2851    0.0000 H   0  0  0  0  0  0  0  0  0  0  0  0
    3.2116    1.3785    0.0000 H   0  0  0  0  0  0  0  0  0  0  0  0
    2.9798    0.6413    0.0000 H   0  0  0  0  0  0  0  0  0  0  0  0
    5.8139    2.9827    0.0000 H   0  0  0  0  0  0  0  0  0  0  0  0
    5.1236    2.5842    0.0000 H   0  0  0  0  0  0  0  0  0  0  0  0
    5.1009   -1.9163    0.0000 H   0  0  0  0  0  0  0  0  0  0  0  0
    2.2950   -0.2963    0.0000 H   0  0  0  0  0  0  0  0  0  0  0  0
    6.5986    1.7616    0.0000 H   0  0  0  0  0  0  0  0  0  0  0  0
    7.2888    2.1601    0.0000 H   0  0  0  0  0  0  0  0  0  0  0  0
    1.4631   -3.7372    0.0000 H   0  0  0  0  0  0  0  0  0  0  0  0
    1.6900   -4.5842    0.0000 H   0  0  0  0  0  0  0  0  0  0  0  0
    2.5369   -4.3572    0.0000 H   0  0  0  0  0  0  0  0  0  0  0  0
    7.8954    1.6697    0.0000 H   0  0  0  0  0  0  0  0  0  0  0  0
    8.2934    0.8885    0.0000 H   0  0  0  0  0  0  0  0  0  0  0  0
    9.0747    1.2865    0.0000 H   0  0  0  0  0  0  0  0  0  0  0  0
    9.8832    0.9037    0.0000 H   0  0  0  0  0  0  0  0  0  0  0  0
   11.0548    3.9532    0.0000 H   0  0  0  0  0  0  0  0  0  0  0  0
   12.6737    0.6104    0.0000 H   0  0  0  0  0  0  0  0  0  0  0  0
   11.1938   -0.0485    0.0000 H   0  0  0  0  0  0  0  0  0  0  0  0
   12.5712    4.6425    0.0000 H   0  0  0  0  0  0  0  0  0  0  0  0
   14.5166    3.2492    0.0000 H   0  0  0  0  0  0  0  0  0  0  0  0
   14.8340    4.0666    0.0000 H   0  0  0  0  0  0  0  0  0  0  0  0
   14.0166    4.3839    0.0000 H   0  0  0  0  0  0  0  0  0  0  0  0
  1 18  1  0  0  0  0
  1 22  1  0  0  0  0
  2 19  1  0  0  0  0
  2 21  1  0  0  0  0
  3  9  1  0  0  0  0
  3 10  1  0  0  0  0
  3 15  1  0  0  0  0
  4 20  1  0  0  0  0
  4 21  2  0  0  0  0
  5 22  1  0  0  0  0
  5 23  1  0  0  0  0
  5 27  1  0  0  0  0
  6  7  1  0  0  0  0
  6 22  2  0  0  0  0
  7 23  2  0  0  0  0
  8 28  1  0  0  0  0
  8 34  2  0  0  0  0
  9 11  1  0  0  0  0
  9 36  1  0  0  0  0
  9 37  1  0  0  0  0
 10 12  1  0  0  0  0
 10 38  1  0  0  0  0
 10 39  1  0  0  0  0
 11 13  1  0  0  0  0
 11 40  1  0  0  0  0
 11 41  1  0  0  0  0
 12 14  1  0  0  0  0
 12 42  1  0  0  0  0
 12 43  1  0  0  0  0
 13 14  1  0  0  0  0
 13 16  2  0  0  0  0
 14 17  2  0  0  0  0
 15 18  1  0  0  0  0
 15 44  1  0  0  0  0
 15 45  1  0  0  0  0
 16 19  1  0  0  0  0
 16 46  1  0  0  0  0
 17 20  1  0  0  0  0
 17 47  1  0  0  0  0
 18 48  1  0  0  0  0
 18 49  1  0  0  0  0
 19 20  2  0  0  0  0
 21 24  1  0  0  0  0
 23 25  1  0  0  0  0
 24 50  1  0  0  0  0
 24 51  1  0  0  0  0
 24 52  1  0  0  0  0
 25 26  2  0  0  0  0
 25 29  1  0  0  0  0
 26 28  1  0  0  0  0
 26 30  1  0  0  0  0
 27 53  1  0  0  0  0
 27 54  1  0  0  0  0
 27 55  1  0  0  0  0
 28 31  2  0  0  0  0
 29 32  2  0  0  0  0
 29 56  1  0  0  0  0
 30 33  2  0  0  0  0
 30 57  1  0  0  0  0
 31 32  1  0  0  0  0
 31 58  1  0  0  0  0
 32 59  1  0  0  0  0
 33 34  1  0  0  0  0
 33 60  1  0  0  0  0
 34 35  1  0  0  0  0
 35 61  1  0  0  0  0
 35 62  1  0  0  0  0
 35 63  1  0  0  0  0
M  END
> <PUBCHEM_COMPOUND_CID>
11496746

> <PUBCHEM_COMPOUND_CANONICALIZED>
1

> <PUBCHEM_CACTVS_COMPLEXITY>
715

> <PUBCHEM_CACTVS_HBOND_ACCEPTOR>
7

> <PUBCHEM_CACTVS_HBOND_DONOR>
0

> <PUBCHEM_CACTVS_ROTATABLE_BOND>
5

> <PUBCHEM_CACTVS_SUBSKEYS>
AAADceB7oABAAAAAAAAAAAAAAAAAAWLAAAA8YIAABYAAAFix/gAAHgQIAAAADAzF3wSz1vcMFEiqA6dydASS2CtvYrAd2CG/bNiOLvLEvbuPOSjkzBPY6YeY2fKOqAABQAASEABQAAKAACQgAAAAAAAAAA==

> <PUBCHEM_IUPAC_OPENEYE_NAME>
2-methyl-7-[2-[[4-methyl-5-(2-methyl-5-quinolyl)-1,2,4-triazol-3-yl]sulfanyl]ethyl]-5,6,8,9-tetrahydrooxazolo[4,5-h][3]benzazepine

> <PUBCHEM_IUPAC_CAS_NAME>
2-methyl-7-[2-[[4-methyl-5-(2-methyl-5-quinolinyl)-1,2,4-triazol-3-yl]thio]ethyl]-5,6,8,9-tetrahydrooxazolo[4,5-h][3]benzazepine

> <PUBCHEM_IUPAC_NAME_MARKUP>
2-methyl-7-[2-[[4-methyl-5-(2-methylquinolin-5-yl)-1,2,4-triazol-3-yl]sulfanyl]ethyl]-5,6,8,9-tetrahydro-[1,3]oxazolo[4,5-h][3]benzazepine

> <PUBCHEM_IUPAC_NAME>
2-methyl-7-[2-[[4-methyl-5-(2-methylquinolin-5-yl)-1,2,4-triazol-3-yl]sulfanyl]ethyl]-5,6,8,9-tetrahydro-[1,3]oxazolo[4,5-h][3]benzazepine

> <PUBCHEM_IUPAC_SYSTEMATIC_NAME>
2-methyl-7-[2-[[4-methyl-5-(2-methylquinolin-5-yl)-1,2,4-triazol-3-yl]sulfanyl]ethyl]-5,6,8,9-tetrahydro-[1,3]oxazolo[4,5-h][3]benzazepine

> <PUBCHEM_IUPAC_TRADITIONAL_NAME>
2-methyl-7-[2-[[4-methyl-5-(2-methyl-5-quinolyl)-1,2,4-triazol-3-yl]thio]ethyl]-5,6,8,9-tetrahydrooxazolo[4,5-h][3]benzazepine

> <PUBCHEM_IUPAC_INCHI>
InChI=1S/C27H28N6OS/c1-17-7-8-21-22(5-4-6-23(21)28-17)26-30-31-27(32(26)3)35-14-13-33-11-9-19-15-24-25(34-18(2)29-24)16-20(19)10-12-33/h4-8,15-16H,9-14H2,1-3H3

> <PUBCHEM_IUPAC_INCHIKEY>
BYMRLNXYRMIIKD-UHFFFAOYSA-N

> <PUBCHEM_XLOGP3_AA>
4.9

> <PUBCHEM_EXACT_MASS>
484.20453071

> <PUBCHEM_MOLECULAR_FORMULA>
C27H28N6OS

> <PUBCHEM_MOLECULAR_WEIGHT>
484.6

> <PUBCHEM_OPENEYE_CAN_SMILES>
CC1=NC2=CC=CC(=C2C=C1)C3=NN=C(N3C)SCCN4CCC5=CC6=C(C=C5CC4)OC(=N6)C

> <PUBCHEM_OPENEYE_ISO_SMILES>
CC1=NC2=CC=CC(=C2C=C1)C3=NN=C(N3C)SCCN4CCC5=CC6=C(C=C5CC4)OC(=N6)C

> <PUBCHEM_CACTVS_TPSA>
98.2

> <PUBCHEM_MONOISOTOPIC_WEIGHT>
484.20453071

> <PUBCHEM_TOTAL_CHARGE>
0

> <PUBCHEM_HEAVY_ATOM_COUNT>
35

> <PUBCHEM_ATOM_DEF_STEREO_COUNT>
0

> <PUBCHEM_ATOM_UDEF_STEREO_COUNT>
0

> <PUBCHEM_BOND_DEF_STEREO_COUNT>
0

> <PUBCHEM_BOND_UDEF_STEREO_COUNT>
0

> <PUBCHEM_ISOTOPIC_ATOM_COUNT>
0

> <PUBCHEM_COMPONENT_COUNT>
1

> <PUBCHEM_CACTVS_TAUTO_COUNT>
-1

> <PUBCHEM_COORDINATE_TYPE>
1
5
255

> <PUBCHEM_BONDANNOTATIONS>
13  14  8
13  16  8
14  17  8
16  19  8
17  20  8
19  20  8
2  19  8
2  21  8
25  26  8
25  29  8
26  28  8
26  30  8
28  31  8
29  32  8
30  33  8
31  32  8
33  34  8
4  20  8
4  21  8
5  22  8
5  23  8
6  22  8
6  7  8
7  23  8
8  28  8
8  34  8

$$$$
