130431295
  -OEChem-09292322462D

 66 69  0     1  0  0  0  0  0999 V2000
   15.7619   -0.6020    0.0000 Cl  0  0  0  0  0  0  0  0  0  0  0  0
    9.7619   -0.6020    0.0000 F   0  0  0  0  0  0  0  0  0  0  0  0
   13.7619   -0.6020    0.0000 O   0  0  0  0  0  0  0  0  0  0  0  0
    6.7619   -2.3341    0.0000 O   0  0  0  0  0  0  0  0  0  0  0  0
   10.7619    1.1300    0.0000 N   0  0  0  0  0  0  0  0  0  0  0  0
   12.7619    1.1300    0.0000 N   0  0  0  0  0  0  0  0  0  0  0  0
    6.7619   -0.6020    0.0000 N   0  0  0  0  0  0  0  0  0  0  0  0
    4.6783   -2.2728    0.0000 N   0  0  0  0  0  0  0  0  0  0  0  0
   11.2619    1.9961    0.0000 C   0  0  0  0  0  0  0  0  0  0  0  0
   11.2619    0.2640    0.0000 C   0  0  0  0  0  0  0  0  0  0  0  0
   12.2619    1.9961    0.0000 C   0  0  0  0  0  0  0  0  0  0  0  0
   12.2619    0.2640    0.0000 C   0  0  0  0  0  0  0  0  0  0  0  0
    9.7619    1.1300    0.0000 C   0  0  0  0  0  0  0  0  0  0  0  0
    9.2619    0.2640    0.0000 C   0  0  3  0  0  0  0  0  0  0  0  0
   13.7619    1.1300    0.0000 C   0  0  0  0  0  0  0  0  0  0  0  0
    8.2619    0.2640    0.0000 C   0  0  0  0  0  0  0  0  0  0  0  0
   14.2619    1.9961    0.0000 C   0  0  0  0  0  0  0  0  0  0  0  0
   14.2619    0.2640    0.0000 C   0  0  0  0  0  0  0  0  0  0  0  0
    7.7619   -0.6020    0.0000 C   0  0  0  0  0  0  0  0  0  0  0  0
   15.2619    1.9961    0.0000 C   0  0  0  0  0  0  0  0  0  0  0  0
   15.2619    0.2640    0.0000 C   0  0  0  0  0  0  0  0  0  0  0  0
   15.7619    1.1300    0.0000 C   0  0  0  0  0  0  0  0  0  0  0  0
   15.7619    2.8621    0.0000 C   0  0  0  0  0  0  0  0  0  0  0  0
    6.2619   -1.4680    0.0000 C   0  0  0  0  0  0  0  0  0  0  0  0
   16.7619    2.8621    0.0000 C   0  0  0  0  0  0  0  0  0  0  0  0
    5.2619   -1.4680    0.0000 C   0  0  0  0  0  0  0  0  0  0  0  0
   14.2619   -1.4680    0.0000 C   0  0  0  0  0  0  0  0  0  0  0  0
    4.6783   -0.6633    0.0000 C   0  0  0  0  0  0  0  0  0  0  0  0
    3.7320   -1.9680    0.0000 C   0  0  0  0  0  0  0  0  0  0  0  0
    3.7320   -0.9680    0.0000 C   0  0  0  0  0  0  0  0  0  0  0  0
    2.8660   -2.4680    0.0000 C   0  0  0  0  0  0  0  0  0  0  0  0
    2.8660   -0.4680    0.0000 C   0  0  0  0  0  0  0  0  0  0  0  0
    2.0000   -1.9680    0.0000 C   0  0  0  0  0  0  0  0  0  0  0  0
    2.0000   -0.9680    0.0000 C   0  0  0  0  0  0  0  0  0  0  0  0
   11.3695    2.6066    0.0000 H   0  0  0  0  0  0  0  0  0  0  0  0
   10.6793    2.2081    0.0000 H   0  0  0  0  0  0  0  0  0  0  0  0
   10.6793    0.0520    0.0000 H   0  0  0  0  0  0  0  0  0  0  0  0
   11.3695   -0.3466    0.0000 H   0  0  0  0  0  0  0  0  0  0  0  0
   12.8445    2.2081    0.0000 H   0  0  0  0  0  0  0  0  0  0  0  0
   12.1542    2.6066    0.0000 H   0  0  0  0  0  0  0  0  0  0  0  0
   12.1542   -0.3466    0.0000 H   0  0  0  0  0  0  0  0  0  0  0  0
   12.8445    0.0520    0.0000 H   0  0  0  0  0  0  0  0  0  0  0  0
    9.8695    1.7406    0.0000 H   0  0  0  0  0  0  0  0  0  0  0  0
    9.1793    1.3421    0.0000 H   0  0  0  0  0  0  0  0  0  0  0  0
    9.8819    0.2640    0.0000 H   0  0  0  0  0  0  0  0  0  0  0  0
    8.3695    0.8746    0.0000 H   0  0  0  0  0  0  0  0  0  0  0  0
    7.6793    0.4761    0.0000 H   0  0  0  0  0  0  0  0  0  0  0  0
   13.9519    2.5330    0.0000 H   0  0  0  0  0  0  0  0  0  0  0  0
    7.6542   -1.2126    0.0000 H   0  0  0  0  0  0  0  0  0  0  0  0
    8.3445   -0.8141    0.0000 H   0  0  0  0  0  0  0  0  0  0  0  0
   16.3819    1.1300    0.0000 H   0  0  0  0  0  0  0  0  0  0  0  0
   15.8695    3.4727    0.0000 H   0  0  0  0  0  0  0  0  0  0  0  0
   15.1793    3.0741    0.0000 H   0  0  0  0  0  0  0  0  0  0  0  0
    6.4519   -0.0651    0.0000 H   0  0  0  0  0  0  0  0  0  0  0  0
   16.7619    2.2421    0.0000 H   0  0  0  0  0  0  0  0  0  0  0  0
   17.3819    2.8621    0.0000 H   0  0  0  0  0  0  0  0  0  0  0  0
   16.7619    3.4821    0.0000 H   0  0  0  0  0  0  0  0  0  0  0  0
   13.7249   -1.7780    0.0000 H   0  0  0  0  0  0  0  0  0  0  0  0
   14.5719   -2.0050    0.0000 H   0  0  0  0  0  0  0  0  0  0  0  0
   14.7988   -1.1580    0.0000 H   0  0  0  0  0  0  0  0  0  0  0  0
    4.8709   -2.8621    0.0000 H   0  0  0  0  0  0  0  0  0  0  0  0
    4.8709   -0.0740    0.0000 H   0  0  0  0  0  0  0  0  0  0  0  0
    2.8660   -3.0880    0.0000 H   0  0  0  0  0  0  0  0  0  0  0  0
    2.8660    0.1520    0.0000 H   0  0  0  0  0  0  0  0  0  0  0  0
    1.4631   -2.2780    0.0000 H   0  0  0  0  0  0  0  0  0  0  0  0
    1.4631   -0.6580    0.0000 H   0  0  0  0  0  0  0  0  0  0  0  0
  1 21  1  0  0  0  0
  2 14  1  0  0  0  0
  3 18  1  0  0  0  0
  3 27  1  0  0  0  0
  4 24  2  0  0  0  0
  5  9  1  0  0  0  0
  5 10  1  0  0  0  0
  5 13  1  0  0  0  0
  6 11  1  0  0  0  0
  6 12  1  0  0  0  0
  6 15  1  0  0  0  0
  7 19  1  0  0  0  0
  7 24  1  0  0  0  0
  7 54  1  0  0  0  0
  8 26  1  0  0  0  0
  8 29  1  0  0  0  0
  8 61  1  0  0  0  0
  9 11  1  0  0  0  0
  9 35  1  0  0  0  0
  9 36  1  0  0  0  0
 10 12  1  0  0  0  0
 10 37  1  0  0  0  0
 10 38  1  0  0  0  0
 11 39  1  0  0  0  0
 11 40  1  0  0  0  0
 12 41  1  0  0  0  0
 12 42  1  0  0  0  0
 13 14  1  0  0  0  0
 13 43  1  0  0  0  0
 13 44  1  0  0  0  0
 14 16  1  0  0  0  0
 14 45  1  0  0  0  0
 15 17  1  0  0  0  0
 15 18  2  0  0  0  0
 16 19  1  0  0  0  0
 16 46  1  0  0  0  0
 16 47  1  0  0  0  0
 17 20  2  0  0  0  0
 17 48  1  0  0  0  0
 18 21  1  0  0  0  0
 19 49  1  0  0  0  0
 19 50  1  0  0  0  0
 20 22  1  0  0  0  0
 20 23  1  0  0  0  0
 21 22  2  0  0  0  0
 22 51  1  0  0  0  0
 23 25  1  0  0  0  0
 23 52  1  0  0  0  0
 23 53  1  0  0  0  0
 24 26  1  0  0  0  0
 25 55  1  0  0  0  0
 25 56  1  0  0  0  0
 25 57  1  0  0  0  0
 26 28  2  0  0  0  0
 27 58  1  0  0  0  0
 27 59  1  0  0  0  0
 27 60  1  0  0  0  0
 28 30  1  0  0  0  0
 28 62  1  0  0  0  0
 29 30  1  0  0  0  0
 29 31  2  0  0  0  0
 30 32  2  0  0  0  0
 31 33  1  0  0  0  0
 31 63  1  0  0  0  0
 32 34  1  0  0  0  0
 32 64  1  0  0  0  0
 33 34  2  0  0  0  0
 33 65  1  0  0  0  0
 34 66  1  0  0  0  0
M  END
> <PUBCHEM_COMPOUND_CID>
130431295

> <PUBCHEM_COMPOUND_CANONICALIZED>
1

> <PUBCHEM_CACTVS_COMPLEXITY>
650

> <PUBCHEM_CACTVS_HBOND_ACCEPTOR>
5

> <PUBCHEM_CACTVS_HBOND_DONOR>
2

> <PUBCHEM_CACTVS_ROTATABLE_BOND>
9

> <PUBCHEM_CACTVS_SUBSKEYS>
AAADcfB7sQAEAAAAAAAAAAAAAAAAAWAAAAA8YIAAAAAAAFgB9AAAHwIQAAAADA7BniYyxvPJlACoAyVyVACCiCAnJ2AImaG9b9gOZvPFt7uVMShk1hHY6YeYyYCeIAAAYAICGABAAADABAQwAAAAAAAAAA==

> <PUBCHEM_IUPAC_OPENEYE_NAME>
N-[4-[4-(3-chloro-5-ethyl-2-methoxy-phenyl)piperazin-1-yl]-3-fluoro-butyl]-1H-indole-2-carboxamide

> <PUBCHEM_IUPAC_CAS_NAME>
N-[4-[4-(3-chloro-5-ethyl-2-methoxyphenyl)-1-piperazinyl]-3-fluorobutyl]-1H-indole-2-carboxamide

> <PUBCHEM_IUPAC_NAME_MARKUP>
<I>N</I>-[4-[4-(3-chloro-5-ethyl-2-methoxyphenyl)piperazin-1-yl]-3-fluorobutyl]-1<I>H</I>-indole-2-carboxamide

> <PUBCHEM_IUPAC_NAME>
N-[4-[4-(3-chloro-5-ethyl-2-methoxyphenyl)piperazin-1-yl]-3-fluorobutyl]-1H-indole-2-carboxamide

> <PUBCHEM_IUPAC_SYSTEMATIC_NAME>
N-[4-[4-(3-chloranyl-5-ethyl-2-methoxy-phenyl)piperazin-1-yl]-3-fluoranyl-butyl]-1H-indole-2-carboxamide

> <PUBCHEM_IUPAC_TRADITIONAL_NAME>
N-[4-[4-(3-chloro-5-ethyl-2-methoxy-phenyl)piperazino]-3-fluoro-butyl]-1H-indole-2-carboxamide

> <PUBCHEM_IUPAC_INCHI>
InChI=1S/C26H32ClFN4O2/c1-3-18-14-21(27)25(34-2)24(15-18)32-12-10-31(11-13-32)17-20(28)8-9-29-26(33)23-16-19-6-4-5-7-22(19)30-23/h4-7,14-16,20,30H,3,8-13,17H2,1-2H3,(H,29,33)

> <PUBCHEM_IUPAC_INCHIKEY>
CSFWIRRKNFTOOA-UHFFFAOYSA-N

> <PUBCHEM_XLOGP3_AA>
5.5

> <PUBCHEM_EXACT_MASS>
486.2197821

> <PUBCHEM_MOLECULAR_FORMULA>
C26H32ClFN4O2

> <PUBCHEM_MOLECULAR_WEIGHT>
487.0

> <PUBCHEM_OPENEYE_CAN_SMILES>
CCC1=CC(=C(C(=C1)Cl)OC)N2CCN(CC2)CC(CCNC(=O)C3=CC4=CC=CC=C4N3)F

> <PUBCHEM_OPENEYE_ISO_SMILES>
CCC1=CC(=C(C(=C1)Cl)OC)N2CCN(CC2)CC(CCNC(=O)C3=CC4=CC=CC=C4N3)F

> <PUBCHEM_CACTVS_TPSA>
60.6

> <PUBCHEM_MONOISOTOPIC_WEIGHT>
486.2197821

> <PUBCHEM_TOTAL_CHARGE>
0

> <PUBCHEM_HEAVY_ATOM_COUNT>
34

> <PUBCHEM_ATOM_DEF_STEREO_COUNT>
0

> <PUBCHEM_ATOM_UDEF_STEREO_COUNT>
1

> <PUBCHEM_BOND_DEF_STEREO_COUNT>
0

> <PUBCHEM_BOND_UDEF_STEREO_COUNT>
0

> <PUBCHEM_ISOTOPIC_ATOM_COUNT>
0

> <PUBCHEM_COMPONENT_COUNT>
1

> <PUBCHEM_CACTVS_TAUTO_COUNT>
-1

> <PUBCHEM_COORDINATE_TYPE>
1
5
255

> <PUBCHEM_BONDANNOTATIONS>
15  17  8
15  18  8
17  20  8
18  21  8
14  2  3
20  22  8
21  22  8
26  28  8
28  30  8
29  30  8
29  31  8
30  32  8
31  33  8
32  34  8
33  34  8
8  26  8
8  29  8

$$$$
