25069015
  -OEChem-09292322302D

 57 61  0     0  0  0  0  0  0999 V2000
    2.0000    4.3243    0.0000 F   0  0  0  0  0  0  0  0  0  0  0  0
    2.0000    6.3243    0.0000 F   0  0  0  0  0  0  0  0  0  0  0  0
    7.1546   -1.7300    0.0000 O   0  0  0  0  0  0  0  0  0  0  0  0
    9.7017   -4.7205    0.0000 O   0  0  0  0  0  0  0  0  0  0  0  0
    5.4573    1.2898    0.0000 N   0  0  0  0  0  0  0  0  0  0  0  0
    5.4804    3.2897    0.0000 N   0  0  0  0  0  0  0  0  0  0  0  0
    8.3053   -5.8185    0.0000 N   0  0  0  0  0  0  0  0  0  0  0  0
    4.5971    1.7998    0.0000 C   0  0  0  0  0  0  0  0  0  0  0  0
    6.3291    1.7798    0.0000 C   0  0  0  0  0  0  0  0  0  0  0  0
    4.6087    2.7997    0.0000 C   0  0  0  0  0  0  0  0  0  0  0  0
    6.3406    2.7797    0.0000 C   0  0  0  0  0  0  0  0  0  0  0  0
    5.4458    0.2899    0.0000 C   0  0  0  0  0  0  0  0  0  0  0  0
    5.4920    4.2896    0.0000 C   0  0  0  0  0  0  0  0  0  0  0  0
    6.3060   -0.2201    0.0000 C   0  0  0  0  0  0  0  0  0  0  0  0
    4.5981    4.8243    0.0000 C   0  0  0  0  0  0  0  0  0  0  0  0
    6.2944   -1.2200    0.0000 C   0  0  0  0  0  0  0  0  0  0  0  0
    6.3981    4.8035    0.0000 C   0  0  0  0  0  0  0  0  0  0  0  0
    4.5981    5.8243    0.0000 C   0  0  0  0  0  0  0  0  0  0  0  0
    3.7320    4.3243    0.0000 C   0  0  0  0  0  0  0  0  0  0  0  0
    6.3981    5.8451    0.0000 C   0  0  0  0  0  0  0  0  0  0  0  0
    5.4920    6.3589    0.0000 C   0  0  0  0  0  0  0  0  0  0  0  0
    3.7320    6.3243    0.0000 C   0  0  0  0  0  0  0  0  0  0  0  0
    7.1430   -2.7299    0.0000 C   0  0  0  0  0  0  0  0  0  0  0  0
    2.8660    4.8243    0.0000 C   0  0  0  0  0  0  0  0  0  0  0  0
    7.1199   -4.7298    0.0000 C   0  0  0  0  0  0  0  0  0  0  0  0
    7.9916   -4.2398    0.0000 C   0  0  0  0  0  0  0  0  0  0  0  0
    2.8660    5.8243    0.0000 C   0  0  0  0  0  0  0  0  0  0  0  0
    7.3178   -5.7040    0.0000 C   0  0  0  0  0  0  0  0  0  0  0  0
    8.0032   -3.2399    0.0000 C   0  0  0  0  0  0  0  0  0  0  0  0
    6.2713   -3.2199    0.0000 C   0  0  0  0  0  0  0  0  0  0  0  0
    6.2597   -4.2198    0.0000 C   0  0  0  0  0  0  0  0  0  0  0  0
    8.7209   -4.9154    0.0000 C   0  0  0  0  0  0  0  0  0  0  0  0
    3.9878    1.9145    0.0000 H   0  0  0  0  0  0  0  0  0  0  0  0
    4.3784    1.2197    0.0000 H   0  0  0  0  0  0  0  0  0  0  0  0
    6.5344    1.1948    0.0000 H   0  0  0  0  0  0  0  0  0  0  0  0
    6.9409    1.8804    0.0000 H   0  0  0  0  0  0  0  0  0  0  0  0
    4.4034    3.3848    0.0000 H   0  0  0  0  0  0  0  0  0  0  0  0
    3.9969    2.6991    0.0000 H   0  0  0  0  0  0  0  0  0  0  0  0
    6.9499    2.6650    0.0000 H   0  0  0  0  0  0  0  0  0  0  0  0
    6.5594    3.3598    0.0000 H   0  0  0  0  0  0  0  0  0  0  0  0
    4.8365    0.4046    0.0000 H   0  0  0  0  0  0  0  0  0  0  0  0
    5.2270   -0.2902    0.0000 H   0  0  0  0  0  0  0  0  0  0  0  0
    6.9152   -0.3348    0.0000 H   0  0  0  0  0  0  0  0  0  0  0  0
    6.5247    0.3600    0.0000 H   0  0  0  0  0  0  0  0  0  0  0  0
    5.6851   -1.1053    0.0000 H   0  0  0  0  0  0  0  0  0  0  0  0
    6.0756   -1.8002    0.0000 H   0  0  0  0  0  0  0  0  0  0  0  0
    6.9338    4.4914    0.0000 H   0  0  0  0  0  0  0  0  0  0  0  0
    3.7320    3.7043    0.0000 H   0  0  0  0  0  0  0  0  0  0  0  0
    6.9338    6.1572    0.0000 H   0  0  0  0  0  0  0  0  0  0  0  0
    5.4848    6.9789    0.0000 H   0  0  0  0  0  0  0  0  0  0  0  0
    3.7320    6.9443    0.0000 H   0  0  0  0  0  0  0  0  0  0  0  0
    6.7006   -5.7629    0.0000 H   0  0  0  0  0  0  0  0  0  0  0  0
    7.3116   -6.3240    0.0000 H   0  0  0  0  0  0  0  0  0  0  0  0
    8.5437   -2.9362    0.0000 H   0  0  0  0  0  0  0  0  0  0  0  0
    5.7380   -2.9037    0.0000 H   0  0  0  0  0  0  0  0  0  0  0  0
    5.7192   -4.5236    0.0000 H   0  0  0  0  0  0  0  0  0  0  0  0
    8.6091   -6.3589    0.0000 H   0  0  0  0  0  0  0  0  0  0  0  0
  1 24  1  0  0  0  0
  2 27  1  0  0  0  0
  3 16  1  0  0  0  0
  3 23  1  0  0  0  0
  4 32  2  0  0  0  0
  5  8  1  0  0  0  0
  5  9  1  0  0  0  0
  5 12  1  0  0  0  0
  6 10  1  0  0  0  0
  6 11  1  0  0  0  0
  6 13  1  0  0  0  0
  7 28  1  0  0  0  0
  7 32  1  0  0  0  0
  7 57  1  0  0  0  0
  8 10  1  0  0  0  0
  8 33  1  0  0  0  0
  8 34  1  0  0  0  0
  9 11  1  0  0  0  0
  9 35  1  0  0  0  0
  9 36  1  0  0  0  0
 10 37  1  0  0  0  0
 10 38  1  0  0  0  0
 11 39  1  0  0  0  0
 11 40  1  0  0  0  0
 12 14  1  0  0  0  0
 12 41  1  0  0  0  0
 12 42  1  0  0  0  0
 13 15  1  0  0  0  0
 13 17  2  0  0  0  0
 14 16  1  0  0  0  0
 14 43  1  0  0  0  0
 14 44  1  0  0  0  0
 15 18  1  0  0  0  0
 15 19  2  0  0  0  0
 16 45  1  0  0  0  0
 16 46  1  0  0  0  0
 17 20  1  0  0  0  0
 17 47  1  0  0  0  0
 18 21  1  0  0  0  0
 18 22  2  0  0  0  0
 19 24  1  0  0  0  0
 19 48  1  0  0  0  0
 20 21  2  0  0  0  0
 20 49  1  0  0  0  0
 21 50  1  0  0  0  0
 22 27  1  0  0  0  0
 22 51  1  0  0  0  0
 23 29  2  0  0  0  0
 23 30  1  0  0  0  0
 24 27  2  0  0  0  0
 25 26  2  0  0  0  0
 25 28  1  0  0  0  0
 25 31  1  0  0  0  0
 26 29  1  0  0  0  0
 26 32  1  0  0  0  0
 28 52  1  0  0  0  0
 28 53  1  0  0  0  0
 29 54  1  0  0  0  0
 30 31  2  0  0  0  0
 30 55  1  0  0  0  0
 31 56  1  0  0  0  0
M  END
> <PUBCHEM_COMPOUND_CID>
25069015

> <PUBCHEM_COMPOUND_CANONICALIZED>
1

> <PUBCHEM_CACTVS_COMPLEXITY>
645

> <PUBCHEM_CACTVS_HBOND_ACCEPTOR>
6

> <PUBCHEM_CACTVS_HBOND_DONOR>
1

> <PUBCHEM_CACTVS_ROTATABLE_BOND>
6

> <PUBCHEM_CACTVS_SUBSKEYS>
AAADceB7MYAAAAAAAAAAAAAAAAAAAWAAAAA8YMEAAAAAAFjBVAAAHwAQAAAADAzhmA4wxsPABACIAiVSUACCCAAlIgAIiIEObMgMZjLEtZuWOSjmxhHI6Ye+2JKOoAABQAASAABAAAKAACQAAAAAAAAAAA==

> <PUBCHEM_IUPAC_OPENEYE_NAME>
6-[3-[4-(6,7-difluoro-1-naphthyl)piperazin-1-yl]propoxy]isoindolin-1-one

> <PUBCHEM_IUPAC_CAS_NAME>
6-[3-[4-(6,7-difluoro-1-naphthalenyl)-1-piperazinyl]propoxy]-2,3-dihydroisoindol-1-one

> <PUBCHEM_IUPAC_NAME_MARKUP>
6-[3-[4-(6,7-difluoronaphthalen-1-yl)piperazin-1-yl]propoxy]-2,3-dihydroisoindol-1-one

> <PUBCHEM_IUPAC_NAME>
6-[3-[4-(6,7-difluoronaphthalen-1-yl)piperazin-1-yl]propoxy]-2,3-dihydroisoindol-1-one

> <PUBCHEM_IUPAC_SYSTEMATIC_NAME>
6-[3-[4-[6,7-bis(fluoranyl)naphthalen-1-yl]piperazin-1-yl]propoxy]-2,3-dihydroisoindol-1-one

> <PUBCHEM_IUPAC_TRADITIONAL_NAME>
6-[3-[4-(6,7-difluoro-1-naphthyl)piperazino]propoxy]isoindolin-1-one

> <PUBCHEM_IUPAC_INCHI>
InChI=1S/C25H25F2N3O2/c26-22-13-17-3-1-4-24(20(17)15-23(22)27)30-10-8-29(9-11-30)7-2-12-32-19-6-5-18-16-28-25(31)21(18)14-19/h1,3-6,13-15H,2,7-12,16H2,(H,28,31)

> <PUBCHEM_IUPAC_INCHIKEY>
AXOOPBWOJVOGHK-UHFFFAOYSA-N

> <PUBCHEM_XLOGP3_AA>
4.2

> <PUBCHEM_EXACT_MASS>
437.19148337

> <PUBCHEM_MOLECULAR_FORMULA>
C25H25F2N3O2

> <PUBCHEM_MOLECULAR_WEIGHT>
437.5

> <PUBCHEM_OPENEYE_CAN_SMILES>
C1CN(CCN1CCCOC2=CC3=C(CNC3=O)C=C2)C4=CC=CC5=CC(=C(C=C54)F)F

> <PUBCHEM_OPENEYE_ISO_SMILES>
C1CN(CCN1CCCOC2=CC3=C(CNC3=O)C=C2)C4=CC=CC5=CC(=C(C=C54)F)F

> <PUBCHEM_CACTVS_TPSA>
44.8

> <PUBCHEM_MONOISOTOPIC_WEIGHT>
437.19148337

> <PUBCHEM_TOTAL_CHARGE>
0

> <PUBCHEM_HEAVY_ATOM_COUNT>
32

> <PUBCHEM_ATOM_DEF_STEREO_COUNT>
0

> <PUBCHEM_ATOM_UDEF_STEREO_COUNT>
0

> <PUBCHEM_BOND_DEF_STEREO_COUNT>
0

> <PUBCHEM_BOND_UDEF_STEREO_COUNT>
0

> <PUBCHEM_ISOTOPIC_ATOM_COUNT>
0

> <PUBCHEM_COMPONENT_COUNT>
1

> <PUBCHEM_CACTVS_TAUTO_COUNT>
-1

> <PUBCHEM_COORDINATE_TYPE>
1
5
255

> <PUBCHEM_BONDANNOTATIONS>
13  15  8
13  17  8
15  18  8
15  19  8
17  20  8
18  21  8
18  22  8
19  24  8
20  21  8
22  27  8
23  29  8
23  30  8
24  27  8
25  26  8
25  31  8
26  29  8
30  31  8

$$$$
