46232134
  -OEChem-09292322292D

 56 60  0     1  0  0  0  0  0999 V2000
    2.1374    3.3810    0.0000 Cl  0  0  0  0  0  0  0  0  0  0  0  0
    2.5932    1.3840    0.0000 O   0  0  0  0  0  0  0  0  0  0  0  0
    9.9070   -3.8974    0.0000 O   0  0  0  0  0  0  0  0  0  0  0  0
    7.0983    3.4628    0.0000 N   0  0  3  0  0  0  0  0  0  0  0  0
    6.8758    2.4879    0.0000 C   0  0  2  0  0  0  0  0  0  0  0  0
    5.9748    2.0540    0.0000 C   0  0  2  0  0  0  0  0  0  0  0  0
    7.7453    1.9144    0.0000 C   0  0  0  0  0  0  0  0  0  0  0  0
    5.8810    1.0166    0.0000 C   0  0  0  0  0  0  0  0  0  0  0  0
    7.6755    0.8752    0.0000 C   0  0  0  0  0  0  0  0  0  0  0  0
    5.0738    2.4879    0.0000 C   0  0  0  0  0  0  0  0  0  0  0  0
    6.7370    0.4232    0.0000 C   0  0  0  0  0  0  0  0  0  0  0  0
    6.4748    4.2446    0.0000 C   0  0  0  0  0  0  0  0  0  0  0  0
    4.8513    3.4628    0.0000 C   0  0  0  0  0  0  0  0  0  0  0  0
    5.4748    4.2446    0.0000 C   0  0  0  0  0  0  0  0  0  0  0  0
    6.6643   -0.6593    0.0000 C   0  0  0  0  0  0  0  0  0  0  0  0
    8.0732    3.6853    0.0000 C   0  0  0  0  0  0  0  0  0  0  0  0
    4.8928    0.5686    0.0000 C   0  0  0  0  0  0  0  0  0  0  0  0
    4.3213    1.7677    0.0000 C   0  0  0  0  0  0  0  0  0  0  0  0
    3.8608    3.7851    0.0000 C   0  0  0  0  0  0  0  0  0  0  0  0
    5.6868   -1.1301    0.0000 C   0  0  0  0  0  0  0  0  0  0  0  0
    4.7950   -0.5120    0.0000 C   0  0  0  0  0  0  0  0  0  0  0  0
    3.3236    2.0670    0.0000 C   0  0  0  0  0  0  0  0  0  0  0  0
    7.4927   -1.2195    0.0000 C   0  0  0  0  0  0  0  0  0  0  0  0
    3.0918    3.0826    0.0000 C   0  0  0  0  0  0  0  0  0  0  0  0
    7.4218   -2.2170    0.0000 C   0  0  0  0  0  0  0  0  0  0  0  0
    8.3920   -0.7821    0.0000 C   0  0  0  0  0  0  0  0  0  0  0  0
    8.2502   -2.7771    0.0000 C   0  0  0  0  0  0  0  0  0  0  0  0
    9.2204   -1.3422    0.0000 C   0  0  0  0  0  0  0  0  0  0  0  0
    9.1495   -2.3397    0.0000 C   0  0  0  0  0  0  0  0  0  0  0  0
    9.9779   -2.8999    0.0000 C   0  0  0  0  0  0  0  0  0  0  0  0
    7.6646    2.8045    0.0000 H   0  0  0  0  0  0  0  0  0  0  0  0
    5.2354    1.6347    0.0000 H   0  0  0  0  0  0  0  0  0  0  0  0
    8.3477    1.7676    0.0000 H   0  0  0  0  0  0  0  0  0  0  0  0
    7.9931    2.4828    0.0000 H   0  0  0  0  0  0  0  0  0  0  0  0
    7.8450    0.2788    0.0000 H   0  0  0  0  0  0  0  0  0  0  0  0
    8.2921    0.9401    0.0000 H   0  0  0  0  0  0  0  0  0  0  0  0
    7.0334    4.5136    0.0000 H   0  0  0  0  0  0  0  0  0  0  0  0
    6.3368    4.8491    0.0000 H   0  0  0  0  0  0  0  0  0  0  0  0
    5.6128    4.8491    0.0000 H   0  0  0  0  0  0  0  0  0  0  0  0
    4.9162    4.5136    0.0000 H   0  0  0  0  0  0  0  0  0  0  0  0
    4.3873    0.9276    0.0000 H   0  0  0  0  0  0  0  0  0  0  0  0
    8.2112    3.0809    0.0000 H   0  0  0  0  0  0  0  0  0  0  0  0
    8.6777    3.8233    0.0000 H   0  0  0  0  0  0  0  0  0  0  0  0
    7.9352    4.2898    0.0000 H   0  0  0  0  0  0  0  0  0  0  0  0
    4.4662    1.1649    0.0000 H   0  0  0  0  0  0  0  0  0  0  0  0
    3.7298    4.3912    0.0000 H   0  0  0  0  0  0  0  0  0  0  0  0
    5.6380   -1.7482    0.0000 H   0  0  0  0  0  0  0  0  0  0  0  0
    4.2334   -0.7745    0.0000 H   0  0  0  0  0  0  0  0  0  0  0  0
    6.8643   -2.4881    0.0000 H   0  0  0  0  0  0  0  0  0  0  0  0
    8.4359   -0.1637    0.0000 H   0  0  0  0  0  0  0  0  0  0  0  0
    2.0000    1.5645    0.0000 H   0  0  0  0  0  0  0  0  0  0  0  0
    8.2063   -3.3955    0.0000 H   0  0  0  0  0  0  0  0  0  0  0  0
    9.7780   -1.0711    0.0000 H   0  0  0  0  0  0  0  0  0  0  0  0
   10.5793   -3.0505    0.0000 H   0  0  0  0  0  0  0  0  0  0  0  0
   10.2307   -2.3338    0.0000 H   0  0  0  0  0  0  0  0  0  0  0  0
   10.4206   -4.2446    0.0000 H   0  0  0  0  0  0  0  0  0  0  0  0
  1 24  1  0  0  0  0
  2 22  1  0  0  0  0
  2 51  1  0  0  0  0
  3 30  1  0  0  0  0
  3 56  1  0  0  0  0
  4  5  1  0  0  0  0
  4 12  1  0  0  0  0
  4 16  1  0  0  0  0
  5  6  1  0  0  0  0
  5  7  1  0  0  0  0
  5 31  1  6  0  0  0
  6  8  1  0  0  0  0
  6 10  1  0  0  0  0
  6 32  1  1  0  0  0
  7  9  1  0  0  0  0
  7 33  1  0  0  0  0
  7 34  1  0  0  0  0
  8 11  1  0  0  0  0
  8 17  2  0  0  0  0
  9 11  1  0  0  0  0
  9 35  1  0  0  0  0
  9 36  1  0  0  0  0
 10 13  1  0  0  0  0
 10 18  2  0  0  0  0
 11 15  2  0  0  0  0
 12 14  1  0  0  0  0
 12 37  1  0  0  0  0
 12 38  1  0  0  0  0
 13 14  1  0  0  0  0
 13 19  2  0  0  0  0
 14 39  1  0  0  0  0
 14 40  1  0  0  0  0
 15 20  1  0  0  0  0
 15 23  1  0  0  0  0
 16 42  1  0  0  0  0
 16 43  1  0  0  0  0
 16 44  1  0  0  0  0
 17 21  1  0  0  0  0
 17 41  1  0  0  0  0
 18 22  1  0  0  0  0
 18 45  1  0  0  0  0
 19 24  1  0  0  0  0
 19 46  1  0  0  0  0
 20 21  2  0  0  0  0
 20 47  1  0  0  0  0
 21 48  1  0  0  0  0
 22 24  2  0  0  0  0
 23 25  2  0  0  0  0
 23 26  1  0  0  0  0
 25 27  1  0  0  0  0
 25 49  1  0  0  0  0
 26 28  2  0  0  0  0
 26 50  1  0  0  0  0
 27 29  2  0  0  0  0
 27 52  1  0  0  0  0
 28 29  1  0  0  0  0
 28 53  1  0  0  0  0
 29 30  1  0  0  0  0
 30 54  1  0  0  0  0
 30 55  1  0  0  0  0
M  END
> <PUBCHEM_COMPOUND_CID>
46232134

> <PUBCHEM_COMPOUND_CANONICALIZED>
1

> <PUBCHEM_CACTVS_COMPLEXITY>
579

> <PUBCHEM_CACTVS_HBOND_ACCEPTOR>
3

> <PUBCHEM_CACTVS_HBOND_DONOR>
2

> <PUBCHEM_CACTVS_ROTATABLE_BOND>
2

> <PUBCHEM_CACTVS_SUBSKEYS>
AAADceB6MAAEAAAAAAAAAAAAAAAAAAAAAAAwYMGABYAAAADBUAAAHgIACAAADS7hmCYyBoMAAgCAAiBCAAACAAAgJUAIiAAOC4gINiKDkxOEcAAkwBGImAeQ0PMO5AADIAAQCADYAAbAACQQAAAAAAAAAA==

> <PUBCHEM_IUPAC_OPENEYE_NAME>
(6aS,13bS)-11-chloro-4-[4-(hydroxymethyl)phenyl]-7-methyl-5,6,6a,8,9,13b-hexahydronaphtho[1,2-a][3]benzazepin-12-ol

> <PUBCHEM_IUPAC_CAS_NAME>
(6aS,13bS)-11-chloro-4-[4-(hydroxymethyl)phenyl]-7-methyl-5,6,6a,8,9,13b-hexahydronaphtho[1,2-a][3]benzazepin-12-ol

> <PUBCHEM_IUPAC_NAME_MARKUP>
(6<I>a</I><I>S</I>,13<I>b</I><I>S</I>)-11-chloro-4-[4-(hydroxymethyl)phenyl]-7-methyl-5,6,6<I>a</I>,8,9,13<I>b</I>-hexahydronaphtho[1,2-a][3]benzazepin-12-ol

> <PUBCHEM_IUPAC_NAME>
(6aS,13bS)-11-chloro-4-[4-(hydroxymethyl)phenyl]-7-methyl-5,6,6a,8,9,13b-hexahydronaphtho[1,2-a][3]benzazepin-12-ol

> <PUBCHEM_IUPAC_SYSTEMATIC_NAME>
(6aS,13bS)-11-chloranyl-4-[4-(hydroxymethyl)phenyl]-7-methyl-5,6,6a,8,9,13b-hexahydronaphtho[1,2-a][3]benzazepin-12-ol

> <PUBCHEM_IUPAC_TRADITIONAL_NAME>
(6aS,13bS)-11-chloro-7-methyl-4-(4-methylolphenyl)-5,6,6a,8,9,13b-hexahydronaphtho[1,2-a][3]benzazepin-12-ol

> <PUBCHEM_IUPAC_INCHI>
InChI=1S/C26H26ClNO2/c1-28-12-11-18-13-23(27)25(30)14-22(18)26-21-4-2-3-19(20(21)9-10-24(26)28)17-7-5-16(15-29)6-8-17/h2-8,13-14,24,26,29-30H,9-12,15H2,1H3/t24-,26+/m0/s1

> <PUBCHEM_IUPAC_INCHIKEY>
XNCBAANIRMIPBG-AZGAKELHSA-N

> <PUBCHEM_XLOGP3_AA>
5.2

> <PUBCHEM_EXACT_MASS>
419.1652068

> <PUBCHEM_MOLECULAR_FORMULA>
C26H26ClNO2

> <PUBCHEM_MOLECULAR_WEIGHT>
419.9

> <PUBCHEM_OPENEYE_CAN_SMILES>
CN1CCC2=CC(=C(C=C2C3C1CCC4=C(C=CC=C34)C5=CC=C(C=C5)CO)O)Cl

> <PUBCHEM_OPENEYE_ISO_SMILES>
CN1CCC2=CC(=C(C=C2[C@@H]3[C@@H]1CCC4=C(C=CC=C34)C5=CC=C(C=C5)CO)O)Cl

> <PUBCHEM_CACTVS_TPSA>
43.7

> <PUBCHEM_MONOISOTOPIC_WEIGHT>
419.1652068

> <PUBCHEM_TOTAL_CHARGE>
0

> <PUBCHEM_HEAVY_ATOM_COUNT>
30

> <PUBCHEM_ATOM_DEF_STEREO_COUNT>
2

> <PUBCHEM_ATOM_UDEF_STEREO_COUNT>
0

> <PUBCHEM_BOND_DEF_STEREO_COUNT>
0

> <PUBCHEM_BOND_UDEF_STEREO_COUNT>
0

> <PUBCHEM_ISOTOPIC_ATOM_COUNT>
0

> <PUBCHEM_COMPONENT_COUNT>
1

> <PUBCHEM_CACTVS_TAUTO_COUNT>
-1

> <PUBCHEM_COORDINATE_TYPE>
1
5
255

> <PUBCHEM_BONDANNOTATIONS>
10  13  8
10  18  8
11  15  8
13  19  8
15  20  8
17  21  8
18  22  8
19  24  8
20  21  8
22  24  8
23  25  8
23  26  8
25  27  8
26  28  8
27  29  8
28  29  8
5  31  6
6  32  5
8  11  8
8  17  8

$$$$
