137650550
  -OEChem-09292322062D

 60 63  0     0  0  0  0  0  0999 V2000
    5.4041    0.0000    0.0000 Cl  0  0  0  0  0  0  0  0  0  0  0  0
   11.8081    5.3011    0.0000 S   0  0  0  0  0  0  0  0  0  0  0  0
    3.2769    5.1340    0.0000 O   0  0  0  0  0  0  0  0  0  0  0  0
    6.7410    6.1340    0.0000 N   0  0  0  0  0  0  0  0  0  0  0  0
    2.4109    6.6340    0.0000 N   0  0  0  0  0  0  0  0  0  0  0  0
    3.2769    8.1340    0.0000 N   0  0  0  0  0  0  0  0  0  0  0  0
    8.4730    5.1340    0.0000 C   0  0  0  0  0  0  0  0  0  0  0  0
    8.4730    6.1340    0.0000 C   0  0  0  0  0  0  0  0  0  0  0  0
    7.6070    4.6340    0.0000 C   0  0  0  0  0  0  0  0  0  0  0  0
    7.6070    6.6340    0.0000 C   0  0  0  0  0  0  0  0  0  0  0  0
    6.7410    5.1340    0.0000 C   0  0  0  0  0  0  0  0  0  0  0  0
    5.8750    6.6340    0.0000 C   0  0  0  0  0  0  0  0  0  0  0  0
    9.3391    4.6340    0.0000 C   0  0  0  0  0  0  0  0  0  0  0  0
    5.0089    6.1340    0.0000 C   0  0  0  0  0  0  0  0  0  0  0  0
    4.1429    6.6340    0.0000 C   0  0  0  0  0  0  0  0  0  0  0  0
   10.2051    5.1340    0.0000 C   0  0  0  0  0  0  0  0  0  0  0  0
    1.5169    6.0993    0.0000 C   0  0  0  0  0  0  0  0  0  0  0  0
    9.3391    3.6340    0.0000 C   0  0  0  0  0  0  0  0  0  0  0  0
    2.4109    7.6340    0.0000 C   0  0  0  0  0  0  0  0  0  0  0  0
    0.6109    6.6132    0.0000 C   0  0  0  0  0  0  0  0  0  0  0  0
    0.6109    7.6548    0.0000 C   0  0  0  0  0  0  0  0  0  0  0  0
    1.5169    8.1686    0.0000 C   0  0  0  0  0  0  0  0  0  0  0  0
    3.2769    6.1340    0.0000 C   0  0  0  0  0  0  0  0  0  0  0  0
    4.1429    7.6340    0.0000 C   0  0  0  0  0  0  0  0  0  0  0  0
   11.0711    4.6340    0.0000 C   0  0  0  0  0  0  0  0  0  0  0  0
   10.4143    6.1058    0.0000 C   0  0  0  0  0  0  0  0  0  0  0  0
   10.2051    3.1340    0.0000 C   0  0  0  0  0  0  0  0  0  0  0  0
   11.0711    3.6340    0.0000 C   0  0  0  0  0  0  0  0  0  0  0  0
    5.0089    8.1340    0.0000 C   0  0  0  0  0  0  0  0  0  0  0  0
   11.4030    6.2088    0.0000 C   0  0  0  0  0  0  0  0  0  0  0  0
    8.4730    4.5140    0.0000 H   0  0  0  0  0  0  0  0  0  0  0  0
    9.0836    6.0263    0.0000 H   0  0  0  0  0  0  0  0  0  0  0  0
    8.6851    6.7166    0.0000 H   0  0  0  0  0  0  0  0  0  0  0  0
    7.2085    4.1590    0.0000 H   0  0  0  0  0  0  0  0  0  0  0  0
    8.0055    4.1590    0.0000 H   0  0  0  0  0  0  0  0  0  0  0  0
    8.0055    7.1089    0.0000 H   0  0  0  0  0  0  0  0  0  0  0  0
    7.2085    7.1089    0.0000 H   0  0  0  0  0  0  0  0  0  0  0  0
    6.1304    5.2416    0.0000 H   0  0  0  0  0  0  0  0  0  0  0  0
    6.5289    4.5514    0.0000 H   0  0  0  0  0  0  0  0  0  0  0  0
    6.2735    7.1089    0.0000 H   0  0  0  0  0  0  0  0  0  0  0  0
    5.4764    7.1089    0.0000 H   0  0  0  0  0  0  0  0  0  0  0  0
    4.6104    5.6590    0.0000 H   0  0  0  0  0  0  0  0  0  0  0  0
    5.4075    5.6590    0.0000 H   0  0  0  0  0  0  0  0  0  0  0  0
    1.1233    5.6203    0.0000 H   0  0  0  0  0  0  0  0  0  0  0  0
    1.9215    5.6295    0.0000 H   0  0  0  0  0  0  0  0  0  0  0  0
    8.8021    3.3240    0.0000 H   0  0  0  0  0  0  0  0  0  0  0  0
    0.0000    6.7192    0.0000 H   0  0  0  0  0  0  0  0  0  0  0  0
    0.4018    6.0295    0.0000 H   0  0  0  0  0  0  0  0  0  0  0  0
    0.4018    8.2385    0.0000 H   0  0  0  0  0  0  0  0  0  0  0  0
    0.0000    7.5487    0.0000 H   0  0  0  0  0  0  0  0  0  0  0  0
    1.9215    8.6384    0.0000 H   0  0  0  0  0  0  0  0  0  0  0  0
    1.1233    8.6477    0.0000 H   0  0  0  0  0  0  0  0  0  0  0  0
   10.0002    6.5673    0.0000 H   0  0  0  0  0  0  0  0  0  0  0  0
   10.2051    2.5140    0.0000 H   0  0  0  0  0  0  0  0  0  0  0  0
   11.6081    3.3240    0.0000 H   0  0  0  0  0  0  0  0  0  0  0  0
    5.3189    7.5970    0.0000 H   0  0  0  0  0  0  0  0  0  0  0  0
    5.5459    8.4440    0.0000 H   0  0  0  0  0  0  0  0  0  0  0  0
    4.6989    8.6709    0.0000 H   0  0  0  0  0  0  0  0  0  0  0  0
   11.7130    6.7458    0.0000 H   0  0  0  0  0  0  0  0  0  0  0  0
    6.4041    0.0000    0.0000 H   0  0  0  0  0  0  0  0  0  0  0  0
  1 60  1  0  0  0  0
  2 25  1  0  0  0  0
  2 30  1  0  0  0  0
  3 23  2  0  0  0  0
  4 10  1  0  0  0  0
  4 11  1  0  0  0  0
  4 12  1  0  0  0  0
  5 17  1  0  0  0  0
  5 19  1  0  0  0  0
  5 23  1  0  0  0  0
  6 19  2  0  0  0  0
  6 24  1  0  0  0  0
  7  8  1  0  0  0  0
  7  9  1  0  0  0  0
  7 13  1  0  0  0  0
  7 31  1  0  0  0  0
  8 10  1  0  0  0  0
  8 32  1  0  0  0  0
  8 33  1  0  0  0  0
  9 11  1  0  0  0  0
  9 34  1  0  0  0  0
  9 35  1  0  0  0  0
 10 36  1  0  0  0  0
 10 37  1  0  0  0  0
 11 38  1  0  0  0  0
 11 39  1  0  0  0  0
 12 14  1  0  0  0  0
 12 40  1  0  0  0  0
 12 41  1  0  0  0  0
 13 16  2  0  0  0  0
 13 18  1  0  0  0  0
 14 15  1  0  0  0  0
 14 42  1  0  0  0  0
 14 43  1  0  0  0  0
 15 23  1  0  0  0  0
 15 24  2  0  0  0  0
 16 25  1  0  0  0  0
 16 26  1  0  0  0  0
 17 20  1  0  0  0  0
 17 44  1  0  0  0  0
 17 45  1  0  0  0  0
 18 27  2  0  0  0  0
 18 46  1  0  0  0  0
 19 22  1  0  0  0  0
 20 21  1  0  0  0  0
 20 47  1  0  0  0  0
 20 48  1  0  0  0  0
 21 22  1  0  0  0  0
 21 49  1  0  0  0  0
 21 50  1  0  0  0  0
 22 51  1  0  0  0  0
 22 52  1  0  0  0  0
 24 29  1  0  0  0  0
 25 28  2  0  0  0  0
 26 30  2  0  0  0  0
 26 53  1  0  0  0  0
 27 28  1  0  0  0  0
 27 54  1  0  0  0  0
 28 55  1  0  0  0  0
 29 56  1  0  0  0  0
 29 57  1  0  0  0  0
 29 58  1  0  0  0  0
 30 59  1  0  0  0  0
M  END
> <PUBCHEM_COMPOUND_CID>
137650550

> <PUBCHEM_COMPOUND_CANONICALIZED>
1

> <PUBCHEM_CACTVS_COMPLEXITY>
694

> <PUBCHEM_CACTVS_HBOND_ACCEPTOR>
4

> <PUBCHEM_CACTVS_HBOND_DONOR>
1

> <PUBCHEM_CACTVS_ROTATABLE_BOND>
4

> <PUBCHEM_CACTVS_SUBSKEYS>
AAADceB7IABEAAAAAAAAAAAAAAAAASAAAAA8WIEAAAAAAEiB8AAAHgQAAAAADQjF2ASzAcMAAAisAidydACDAIEgCBBJiBk4AMgIIDKgmRCEIAAghgCoiUcUgMAOgAAAgAAUAAAAAAEAACgAAAAAAAAAAA==

> <PUBCHEM_IUPAC_OPENEYE_NAME>
3-[2-[4-(benzothiophen-4-yl)-1-piperidyl]ethyl]-2-methyl-6,7,8,9-tetrahydropyrido[1,2-a]pyrimidin-4-one;hydrochloride

> <PUBCHEM_IUPAC_CAS_NAME>
3-[2-[4-(1-benzothiophen-4-yl)-1-piperidinyl]ethyl]-2-methyl-6,7,8,9-tetrahydropyrido[1,2-a]pyrimidin-4-one;hydrochloride

> <PUBCHEM_IUPAC_NAME_MARKUP>
3-[2-[4-(1-benzothiophen-4-yl)piperidin-1-yl]ethyl]-2-methyl-6,7,8,9-tetrahydropyrido[1,2-a]pyrimidin-4-one;hydrochloride

> <PUBCHEM_IUPAC_NAME>
3-[2-[4-(1-benzothiophen-4-yl)piperidin-1-yl]ethyl]-2-methyl-6,7,8,9-tetrahydropyrido[1,2-a]pyrimidin-4-one;hydrochloride

> <PUBCHEM_IUPAC_SYSTEMATIC_NAME>
3-[2-[4-(1-benzothiophen-4-yl)piperidin-1-yl]ethyl]-2-methyl-6,7,8,9-tetrahydropyrido[1,2-a]pyrimidin-4-one;hydrochloride

> <PUBCHEM_IUPAC_TRADITIONAL_NAME>
3-[2-[4-(benzothiophen-4-yl)piperidino]ethyl]-2-methyl-6,7,8,9-tetrahydropyrido[1,2-a]pyrimidin-4-one;hydrochloride

> <PUBCHEM_IUPAC_INCHI>
InChI=1S/C24H29N3OS.ClH/c1-17-19(24(28)27-12-3-2-7-23(27)25-17)10-15-26-13-8-18(9-14-26)20-5-4-6-22-21(20)11-16-29-22;/h4-6,11,16,18H,2-3,7-10,12-15H2,1H3;1H

> <PUBCHEM_IUPAC_INCHIKEY>
HBGJFYOVFMCFCV-UHFFFAOYSA-N

> <PUBCHEM_EXACT_MASS>
443.1798115

> <PUBCHEM_MOLECULAR_FORMULA>
C24H30ClN3OS

> <PUBCHEM_MOLECULAR_WEIGHT>
444.0

> <PUBCHEM_OPENEYE_CAN_SMILES>
CC1=C(C(=O)N2CCCCC2=N1)CCN3CCC(CC3)C4=C5C=CSC5=CC=C4.Cl

> <PUBCHEM_OPENEYE_ISO_SMILES>
CC1=C(C(=O)N2CCCCC2=N1)CCN3CCC(CC3)C4=C5C=CSC5=CC=C4.Cl

> <PUBCHEM_CACTVS_TPSA>
64.2

> <PUBCHEM_MONOISOTOPIC_WEIGHT>
443.1798115

> <PUBCHEM_TOTAL_CHARGE>
0

> <PUBCHEM_HEAVY_ATOM_COUNT>
30

> <PUBCHEM_ATOM_DEF_STEREO_COUNT>
0

> <PUBCHEM_ATOM_UDEF_STEREO_COUNT>
0

> <PUBCHEM_BOND_DEF_STEREO_COUNT>
0

> <PUBCHEM_BOND_UDEF_STEREO_COUNT>
0

> <PUBCHEM_ISOTOPIC_ATOM_COUNT>
0

> <PUBCHEM_COMPONENT_COUNT>
2

> <PUBCHEM_CACTVS_TAUTO_COUNT>
-1

> <PUBCHEM_COORDINATE_TYPE>
1
5
255

> <PUBCHEM_BONDANNOTATIONS>
13  16  8
13  18  8
15  23  8
15  24  8
16  25  8
16  26  8
18  27  8
2  25  8
2  30  8
25  28  8
26  30  8
27  28  8
5  19  8
5  23  8
6  19  8
6  24  8

$$$$
