166627357
  -OEChem-09292322062D

 66 70  0     1  0  0  0  0  0999 V2000
    7.1962   -4.4744    0.0000 O   0  0  0  0  0  0  0  0  0  0  0  0
    4.5981    1.4398    0.0000 N   0  0  3  0  0  0  0  0  0  0  0  0
    5.4641    3.9398    0.0000 N   0  0  0  0  0  0  0  0  0  0  0  0
    4.6420   -0.5671    0.0000 N   0  0  0  0  0  0  0  0  0  0  0  0
    7.1962   -2.0602    0.0000 N   0  0  0  0  0  0  0  0  0  0  0  0
    8.0901    2.4051    0.0000 N   0  0  0  0  0  0  0  0  0  0  0  0
    3.7320    0.9398    0.0000 C   0  0  1  0  0  0  0  0  0  0  0  0
    4.5981    2.4398    0.0000 C   0  0  0  0  0  0  0  0  0  0  0  0
    2.8660    1.4398    0.0000 C   0  0  0  0  0  0  0  0  0  0  0  0
    5.4641    2.9398    0.0000 C   0  0  1  0  0  0  0  0  0  0  0  0
    5.4641    0.9398    0.0000 C   0  0  0  0  0  0  0  0  0  0  0  0
    2.0000    0.9398    0.0000 C   0  0  0  0  0  0  0  0  0  0  0  0
    3.7320   -0.0602    0.0000 C   0  0  0  0  0  0  0  0  0  0  0  0
    2.0000   -0.0602    0.0000 C   0  0  0  0  0  0  0  0  0  0  0  0
    6.3301    2.4398    0.0000 C   0  0  0  0  0  0  0  0  0  0  0  0
    2.8660   -0.5602    0.0000 C   0  0  0  0  0  0  0  0  0  0  0  0
    5.4641   -0.0602    0.0000 C   0  0  0  0  0  0  0  0  0  0  0  0
    6.3301   -0.5602    0.0000 C   0  0  0  0  0  0  0  0  0  0  0  0
    6.3301    4.4398    0.0000 C   0  0  0  0  0  0  0  0  0  0  0  0
    7.1962    2.9398    0.0000 C   0  0  0  0  0  0  0  0  0  0  0  0
    7.1962    3.9398    0.0000 C   0  0  0  0  0  0  0  0  0  0  0  0
    6.3301   -1.5602    0.0000 C   0  0  0  0  0  0  0  0  0  0  0  0
    7.1962   -3.0602    0.0000 C   0  0  0  0  0  0  0  0  0  0  0  0
    2.8500   -1.6017    0.0000 C   0  0  0  0  0  0  0  0  0  0  0  0
    7.9033   -3.7673    0.0000 C   0  0  0  0  0  0  0  0  0  0  0  0
    6.4890   -3.7673    0.0000 C   0  0  0  0  0  0  0  0  0  0  0  0
    3.7480   -2.1295    0.0000 C   0  0  0  0  0  0  0  0  0  0  0  0
    4.6501   -1.6087    0.0000 C   0  0  0  0  0  0  0  0  0  0  0  0
    8.0901    4.4744    0.0000 C   0  0  0  0  0  0  0  0  0  0  0  0
    8.9962    3.9606    0.0000 C   0  0  0  0  0  0  0  0  0  0  0  0
    8.9962    2.9190    0.0000 C   0  0  0  0  0  0  0  0  0  0  0  0
    4.2690    0.6298    0.0000 H   0  0  0  0  0  0  0  0  0  0  0  0
    4.3860    3.0224    0.0000 H   0  0  0  0  0  0  0  0  0  0  0  0
    3.9875    2.3321    0.0000 H   0  0  0  0  0  0  0  0  0  0  0  0
    3.2646    1.9147    0.0000 H   0  0  0  0  0  0  0  0  0  0  0  0
    2.4675    1.9147    0.0000 H   0  0  0  0  0  0  0  0  0  0  0  0
    4.9272    3.2498    0.0000 H   0  0  0  0  0  0  0  0  0  0  0  0
    6.0747    0.8321    0.0000 H   0  0  0  0  0  0  0  0  0  0  0  0
    5.6762    1.5224    0.0000 H   0  0  0  0  0  0  0  0  0  0  0  0
    1.7880    1.5224    0.0000 H   0  0  0  0  0  0  0  0  0  0  0  0
    1.3894    0.8321    0.0000 H   0  0  0  0  0  0  0  0  0  0  0  0
    1.3894    0.0474    0.0000 H   0  0  0  0  0  0  0  0  0  0  0  0
    1.7880   -0.6428    0.0000 H   0  0  0  0  0  0  0  0  0  0  0  0
    5.9316    1.9648    0.0000 H   0  0  0  0  0  0  0  0  0  0  0  0
    6.7287    1.9648    0.0000 H   0  0  0  0  0  0  0  0  0  0  0  0
    4.8535    0.0474    0.0000 H   0  0  0  0  0  0  0  0  0  0  0  0
    5.2520   -0.6428    0.0000 H   0  0  0  0  0  0  0  0  0  0  0  0
    4.9272    4.2498    0.0000 H   0  0  0  0  0  0  0  0  0  0  0  0
    6.9407   -0.6679    0.0000 H   0  0  0  0  0  0  0  0  0  0  0  0
    6.5422    0.0224    0.0000 H   0  0  0  0  0  0  0  0  0  0  0  0
    6.7287    4.9147    0.0000 H   0  0  0  0  0  0  0  0  0  0  0  0
    5.9316    4.9147    0.0000 H   0  0  0  0  0  0  0  0  0  0  0  0
    5.7196   -1.4526    0.0000 H   0  0  0  0  0  0  0  0  0  0  0  0
    6.1181   -2.1428    0.0000 H   0  0  0  0  0  0  0  0  0  0  0  0
    6.6234   -2.8230    0.0000 H   0  0  0  0  0  0  0  0  0  0  0  0
    2.3095   -1.9055    0.0000 H   0  0  0  0  0  0  0  0  0  0  0  0
    7.7331   -1.7502    0.0000 H   0  0  0  0  0  0  0  0  0  0  0  0
    8.3417   -4.2057    0.0000 H   0  0  0  0  0  0  0  0  0  0  0  0
    8.3417   -3.3289    0.0000 H   0  0  0  0  0  0  0  0  0  0  0  0
    6.0506   -3.3289    0.0000 H   0  0  0  0  0  0  0  0  0  0  0  0
    6.0506   -4.2057    0.0000 H   0  0  0  0  0  0  0  0  0  0  0  0
    3.7456   -2.7495    0.0000 H   0  0  0  0  0  0  0  0  0  0  0  0
    5.1882   -1.9166    0.0000 H   0  0  0  0  0  0  0  0  0  0  0  0
    8.0829    5.0944    0.0000 H   0  0  0  0  0  0  0  0  0  0  0  0
    9.5319    4.2727    0.0000 H   0  0  0  0  0  0  0  0  0  0  0  0
    9.5319    2.6069    0.0000 H   0  0  0  0  0  0  0  0  0  0  0  0
  1 25  1  0  0  0  0
  1 26  1  0  0  0  0
  7  2  1  6  0  0  0
  2  8  1  0  0  0  0
  2 11  1  0  0  0  0
  3 10  1  0  0  0  0
  3 19  1  0  0  0  0
  3 48  1  0  0  0  0
  4 13  1  0  0  0  0
  4 28  2  0  0  0  0
  5 22  1  0  0  0  0
  5 23  1  0  0  0  0
  5 57  1  0  0  0  0
  6 20  1  0  0  0  0
  6 31  2  0  0  0  0
  7  9  1  0  0  0  0
  7 13  1  0  0  0  0
  7 32  1  0  0  0  0
 10  8  1  6  0  0  0
  8 33  1  0  0  0  0
  8 34  1  0  0  0  0
  9 12  1  0  0  0  0
  9 35  1  0  0  0  0
  9 36  1  0  0  0  0
 10 15  1  0  0  0  0
 10 37  1  0  0  0  0
 11 17  1  0  0  0  0
 11 38  1  0  0  0  0
 11 39  1  0  0  0  0
 12 14  1  0  0  0  0
 12 40  1  0  0  0  0
 12 41  1  0  0  0  0
 13 16  2  0  0  0  0
 14 16  1  0  0  0  0
 14 42  1  0  0  0  0
 14 43  1  0  0  0  0
 15 20  1  0  0  0  0
 15 44  1  0  0  0  0
 15 45  1  0  0  0  0
 16 24  1  0  0  0  0
 17 18  1  0  0  0  0
 17 46  1  0  0  0  0
 17 47  1  0  0  0  0
 18 22  1  0  0  0  0
 18 49  1  0  0  0  0
 18 50  1  0  0  0  0
 19 21  1  0  0  0  0
 19 51  1  0  0  0  0
 19 52  1  0  0  0  0
 20 21  2  0  0  0  0
 21 29  1  0  0  0  0
 22 53  1  0  0  0  0
 22 54  1  0  0  0  0
 23 25  1  0  0  0  0
 23 26  1  0  0  0  0
 23 55  1  0  0  0  0
 24 27  2  0  0  0  0
 24 56  1  0  0  0  0
 25 58  1  0  0  0  0
 25 59  1  0  0  0  0
 26 60  1  0  0  0  0
 26 61  1  0  0  0  0
 27 28  1  0  0  0  0
 27 62  1  0  0  0  0
 28 63  1  0  0  0  0
 29 30  2  0  0  0  0
 29 64  1  0  0  0  0
 30 31  1  0  0  0  0
 30 65  1  0  0  0  0
 31 66  1  0  0  0  0
M  END
> <PUBCHEM_COMPOUND_CID>
166627357

> <PUBCHEM_COMPOUND_CANONICALIZED>
1

> <PUBCHEM_CACTVS_COMPLEXITY>
544

> <PUBCHEM_CACTVS_HBOND_ACCEPTOR>
6

> <PUBCHEM_CACTVS_HBOND_DONOR>
2

> <PUBCHEM_CACTVS_ROTATABLE_BOND>
9

> <PUBCHEM_CACTVS_SUBSKEYS>
AAADcfB7oAAAAAAAAAAAAAAAAABIAAAAAAA8WLEAAAAAAACx4AAAHgAQAAAADCjhngY8gJPIFACgAzRnRACCgCAxAiAI2KA4ZJgKYOLA0ZGVIAhgkADYyAcQgIAOAAAAAAAAAAAAAACAAAQAQAAAAAAAAA==

> <PUBCHEM_IUPAC_OPENEYE_NAME>
N-(oxetan-3-yl)-N'-[[(7R)-5,6,7,8-tetrahydro-1,6-naphthyridin-7-yl]methyl]-N'-[(8S)-5,6,7,8-tetrahydroquinolin-8-yl]butane-1,4-diamine

> <PUBCHEM_IUPAC_CAS_NAME>
N-(3-oxetanyl)-N'-[[(7R)-5,6,7,8-tetrahydro-1,6-naphthyridin-7-yl]methyl]-N'-[(8S)-5,6,7,8-tetrahydroquinolin-8-yl]butane-1,4-diamine

> <PUBCHEM_IUPAC_NAME_MARKUP>
<I>N</I>-(oxetan-3-yl)-<I>N</I>&apos;-[[(7<I>R</I>)-5,6,7,8-tetrahydro-1,6-naphthyridin-7-yl]methyl]-<I>N</I>&apos;-[(8<I>S</I>)-5,6,7,8-tetrahydroquinolin-8-yl]butane-1,4-diamine

> <PUBCHEM_IUPAC_NAME>
N-(oxetan-3-yl)-N'-[[(7R)-5,6,7,8-tetrahydro-1,6-naphthyridin-7-yl]methyl]-N'-[(8S)-5,6,7,8-tetrahydroquinolin-8-yl]butane-1,4-diamine

> <PUBCHEM_IUPAC_SYSTEMATIC_NAME>
N-(oxetan-3-yl)-N'-[[(7R)-5,6,7,8-tetrahydro-1,6-naphthyridin-7-yl]methyl]-N'-[(8S)-5,6,7,8-tetrahydroquinolin-8-yl]butane-1,4-diamine

> <PUBCHEM_IUPAC_TRADITIONAL_NAME>
4-(oxetan-3-ylamino)butyl-[[(7R)-5,6,7,8-tetrahydro-1,6-naphthyridin-7-yl]methyl]-[(8S)-5,6,7,8-tetrahydroquinolin-8-yl]amine

> <PUBCHEM_IUPAC_INCHI>
InChI=1S/C25H35N5O/c1(10-26-22-17-31-18-22)2-13-30(24-9-3-6-19-7-4-12-28-25(19)24)16-21-14-23-20(15-29-21)8-5-11-27-23/h4-5,7-8,11-12,21-22,24,26,29H,1-3,6,9-10,13-18H2/t21-,24+/m1/s1

> <PUBCHEM_IUPAC_INCHIKEY>
HCFZOYBEELAHRR-QPPBQGQZSA-N

> <PUBCHEM_XLOGP3_AA>
1.6

> <PUBCHEM_EXACT_MASS>
421.28416076

> <PUBCHEM_MOLECULAR_FORMULA>
C25H35N5O

> <PUBCHEM_MOLECULAR_WEIGHT>
421.6

> <PUBCHEM_OPENEYE_CAN_SMILES>
C1CC(C2=C(C1)C=CC=N2)N(CCCCNC3COC3)CC4CC5=C(CN4)C=CC=N5

> <PUBCHEM_OPENEYE_ISO_SMILES>
C1C[C@@H](C2=C(C1)C=CC=N2)N(CCCCNC3COC3)C[C@H]4CC5=C(CN4)C=CC=N5

> <PUBCHEM_CACTVS_TPSA>
62.3

> <PUBCHEM_MONOISOTOPIC_WEIGHT>
421.28416076

> <PUBCHEM_TOTAL_CHARGE>
0

> <PUBCHEM_HEAVY_ATOM_COUNT>
31

> <PUBCHEM_ATOM_DEF_STEREO_COUNT>
2

> <PUBCHEM_ATOM_UDEF_STEREO_COUNT>
0

> <PUBCHEM_BOND_DEF_STEREO_COUNT>
0

> <PUBCHEM_BOND_UDEF_STEREO_COUNT>
0

> <PUBCHEM_ISOTOPIC_ATOM_COUNT>
0

> <PUBCHEM_COMPONENT_COUNT>
1

> <PUBCHEM_CACTVS_TAUTO_COUNT>
-1

> <PUBCHEM_COORDINATE_TYPE>
1
5
255

> <PUBCHEM_BONDANNOTATIONS>
13  16  8
16  24  8
7  2  6
20  21  8
21  29  8
24  27  8
27  28  8
29  30  8
30  31  8
4  13  8
4  28  8
6  20  8
6  31  8
10  8  6

$$$$
