137379028
  -OEChem-09292322022D

 72 77  0     1  0  0  0  0  0999 V2000
    6.3301    5.6276    0.0000 F   0  0  0  0  0  0  0  0  0  0  0  0
    9.7942   -2.3724    0.0000 O   0  0  0  0  0  0  0  0  0  0  0  0
   11.9171   -6.1276    0.0000 O   0  0  0  0  0  0  0  0  0  0  0  0
   13.1901   -2.6403    0.0000 O   0  0  0  0  0  0  0  0  0  0  0  0
   16.1901   -4.3724    0.0000 O   0  0  0  0  0  0  0  0  0  0  0  0
   12.1901   -4.3724    0.0000 N   0  0  0  0  0  0  0  0  0  0  0  0
    8.0622    2.6276    0.0000 N   0  0  0  0  0  0  0  0  0  0  0  0
    6.3301    3.6276    0.0000 N   0  0  0  0  0  0  0  0  0  0  0  0
   14.6901   -3.5064    0.0000 N   0  0  0  0  0  0  0  0  0  0  0  0
    2.0000    6.1276    0.0000 N   0  0  0  0  0  0  0  0  0  0  0  0
   13.1901   -4.3724    0.0000 C   0  0  3  0  0  0  0  0  0  0  0  0
    7.1962    2.1276    0.0000 C   0  0  0  0  0  0  0  0  0  0  0  0
    8.0622    3.6276    0.0000 C   0  0  0  0  0  0  0  0  0  0  0  0
    6.3301    2.6276    0.0000 C   0  0  0  0  0  0  0  0  0  0  0  0
    7.1962    4.1276    0.0000 C   0  0  0  0  0  0  0  0  0  0  0  0
   11.6065   -3.5676    0.0000 C   0  0  0  0  0  0  0  0  0  0  0  0
   13.6901   -5.2384    0.0000 C   0  0  0  0  0  0  0  0  0  0  0  0
   10.6603   -3.8724    0.0000 C   0  0  0  0  0  0  0  0  0  0  0  0
    8.9282    2.1276    0.0000 C   0  0  0  0  0  0  0  0  0  0  0  0
   11.6065   -5.1771    0.0000 C   0  0  0  0  0  0  0  0  0  0  0  0
   10.6603   -4.8724    0.0000 C   0  0  0  0  0  0  0  0  0  0  0  0
   14.6901   -5.2384    0.0000 C   0  0  0  0  0  0  0  0  0  0  0  0
   13.6901   -3.5064    0.0000 C   0  0  0  0  0  0  0  0  0  0  0  0
    5.4641    4.1276    0.0000 C   0  0  0  0  0  0  0  0  0  0  0  0
    9.7942   -3.3724    0.0000 C   0  0  0  0  0  0  0  0  0  0  0  0
    8.9282    1.1276    0.0000 C   0  0  0  0  0  0  0  0  0  0  0  0
   15.1901   -4.3724    0.0000 C   0  0  0  0  0  0  0  0  0  0  0  0
    9.7942   -5.3724    0.0000 C   0  0  0  0  0  0  0  0  0  0  0  0
    8.9282   -3.8724    0.0000 C   0  0  0  0  0  0  0  0  0  0  0  0
    8.9282   -4.8724    0.0000 C   0  0  0  0  0  0  0  0  0  0  0  0
    9.7942    0.6276    0.0000 C   0  0  0  0  0  0  0  0  0  0  0  0
    8.0622    0.6276    0.0000 C   0  0  0  0  0  0  0  0  0  0  0  0
    5.4641    5.1276    0.0000 C   0  0  0  0  0  0  0  0  0  0  0  0
    4.5981    3.6276    0.0000 C   0  0  0  0  0  0  0  0  0  0  0  0
    8.9282   -0.8724    0.0000 C   0  0  0  0  0  0  0  0  0  0  0  0
    8.9282   -1.8724    0.0000 C   0  0  0  0  0  0  0  0  0  0  0  0
    9.7942   -0.3724    0.0000 C   0  0  0  0  0  0  0  0  0  0  0  0
    8.0622   -0.3724    0.0000 C   0  0  0  0  0  0  0  0  0  0  0  0
    4.5981    5.6276    0.0000 C   0  0  0  0  0  0  0  0  0  0  0  0
    3.7320    4.1276    0.0000 C   0  0  0  0  0  0  0  0  0  0  0  0
    3.7320    5.1276    0.0000 C   0  0  0  0  0  0  0  0  0  0  0  0
    2.8660    5.6276    0.0000 C   0  0  0  0  0  0  0  0  0  0  0  0
   12.8801   -3.8354    0.0000 H   0  0  0  0  0  0  0  0  0  0  0  0
    6.7976    1.6527    0.0000 H   0  0  0  0  0  0  0  0  0  0  0  0
    7.5947    1.6527    0.0000 H   0  0  0  0  0  0  0  0  0  0  0  0
    8.6728    3.5200    0.0000 H   0  0  0  0  0  0  0  0  0  0  0  0
    8.2742    4.2102    0.0000 H   0  0  0  0  0  0  0  0  0  0  0  0
    5.7196    2.7353    0.0000 H   0  0  0  0  0  0  0  0  0  0  0  0
    6.1181    2.0450    0.0000 H   0  0  0  0  0  0  0  0  0  0  0  0
    7.5947    4.6026    0.0000 H   0  0  0  0  0  0  0  0  0  0  0  0
    6.7976    4.6026    0.0000 H   0  0  0  0  0  0  0  0  0  0  0  0
   12.1439   -3.2584    0.0000 H   0  0  0  0  0  0  0  0  0  0  0  0
   11.3554   -3.0007    0.0000 H   0  0  0  0  0  0  0  0  0  0  0  0
   13.1075   -5.4504    0.0000 H   0  0  0  0  0  0  0  0  0  0  0  0
   13.7977   -5.8490    0.0000 H   0  0  0  0  0  0  0  0  0  0  0  0
    9.5388    2.0200    0.0000 H   0  0  0  0  0  0  0  0  0  0  0  0
    9.1403    2.7102    0.0000 H   0  0  0  0  0  0  0  0  0  0  0  0
   14.5824   -5.8490    0.0000 H   0  0  0  0  0  0  0  0  0  0  0  0
   15.2727   -5.4504    0.0000 H   0  0  0  0  0  0  0  0  0  0  0  0
   15.0001   -2.9694    0.0000 H   0  0  0  0  0  0  0  0  0  0  0  0
    9.7942   -5.9924    0.0000 H   0  0  0  0  0  0  0  0  0  0  0  0
    8.3913   -3.5624    0.0000 H   0  0  0  0  0  0  0  0  0  0  0  0
    8.3913   -5.1824    0.0000 H   0  0  0  0  0  0  0  0  0  0  0  0
   10.3312    0.9376    0.0000 H   0  0  0  0  0  0  0  0  0  0  0  0
    7.5252    0.9376    0.0000 H   0  0  0  0  0  0  0  0  0  0  0  0
    4.5981    3.0076    0.0000 H   0  0  0  0  0  0  0  0  0  0  0  0
    8.3176   -1.7647    0.0000 H   0  0  0  0  0  0  0  0  0  0  0  0
    8.7162   -2.4550    0.0000 H   0  0  0  0  0  0  0  0  0  0  0  0
   10.3312   -0.6824    0.0000 H   0  0  0  0  0  0  0  0  0  0  0  0
    7.5252   -0.6824    0.0000 H   0  0  0  0  0  0  0  0  0  0  0  0
    4.5981    6.2476    0.0000 H   0  0  0  0  0  0  0  0  0  0  0  0
    3.1951    3.8176    0.0000 H   0  0  0  0  0  0  0  0  0  0  0  0
  1 33  1  0  0  0  0
  2 25  1  0  0  0  0
  2 36  1  0  0  0  0
  3 20  2  0  0  0  0
  4 23  2  0  0  0  0
  5 27  2  0  0  0  0
  6 11  1  0  0  0  0
  6 16  1  0  0  0  0
  6 20  1  0  0  0  0
  7 12  1  0  0  0  0
  7 13  1  0  0  0  0
  7 19  1  0  0  0  0
  8 14  1  0  0  0  0
  8 15  1  0  0  0  0
  8 24  1  0  0  0  0
  9 23  1  0  0  0  0
  9 27  1  0  0  0  0
  9 60  1  0  0  0  0
 10 42  3  0  0  0  0
 11 17  1  0  0  0  0
 11 23  1  0  0  0  0
 11 43  1  0  0  0  0
 12 14  1  0  0  0  0
 12 44  1  0  0  0  0
 12 45  1  0  0  0  0
 13 15  1  0  0  0  0
 13 46  1  0  0  0  0
 13 47  1  0  0  0  0
 14 48  1  0  0  0  0
 14 49  1  0  0  0  0
 15 50  1  0  0  0  0
 15 51  1  0  0  0  0
 16 18  1  0  0  0  0
 16 52  1  0  0  0  0
 16 53  1  0  0  0  0
 17 22  1  0  0  0  0
 17 54  1  0  0  0  0
 17 55  1  0  0  0  0
 18 21  2  0  0  0  0
 18 25  1  0  0  0  0
 19 26  1  0  0  0  0
 19 56  1  0  0  0  0
 19 57  1  0  0  0  0
 20 21  1  0  0  0  0
 21 28  1  0  0  0  0
 22 27  1  0  0  0  0
 22 58  1  0  0  0  0
 22 59  1  0  0  0  0
 24 33  2  0  0  0  0
 24 34  1  0  0  0  0
 25 29  2  0  0  0  0
 26 31  2  0  0  0  0
 26 32  1  0  0  0  0
 28 30  2  0  0  0  0
 28 61  1  0  0  0  0
 29 30  1  0  0  0  0
 29 62  1  0  0  0  0
 30 63  1  0  0  0  0
 31 37  1  0  0  0  0
 31 64  1  0  0  0  0
 32 38  2  0  0  0  0
 32 65  1  0  0  0  0
 33 39  1  0  0  0  0
 34 40  2  0  0  0  0
 34 66  1  0  0  0  0
 35 36  1  0  0  0  0
 35 37  2  0  0  0  0
 35 38  1  0  0  0  0
 36 67  1  0  0  0  0
 36 68  1  0  0  0  0
 37 69  1  0  0  0  0
 38 70  1  0  0  0  0
 39 41  2  0  0  0  0
 39 71  1  0  0  0  0
 40 41  1  0  0  0  0
 40 72  1  0  0  0  0
 41 42  1  0  0  0  0
M  END
> <PUBCHEM_COMPOUND_CID>
137379028

> <PUBCHEM_COMPOUND_CANONICALIZED>
1

> <PUBCHEM_CACTVS_COMPLEXITY>
1050

> <PUBCHEM_CACTVS_HBOND_ACCEPTOR>
8

> <PUBCHEM_CACTVS_HBOND_DONOR>
1

> <PUBCHEM_CACTVS_ROTATABLE_BOND>
7

> <PUBCHEM_CACTVS_SUBSKEYS>
AAADceB/uQAAAAAAAAAAAAAAAAAAAWAAAAA8eMECAAAAAFgBUAAAHwAQAAAADCzhmA4wxoPABACYBiVSUACiCAAlIgAIiAGObMgM5jLEtbuWOSjm1jHI6Y++y7COyAABAAAYAACQAAIAADAAAAAAAAAAAA==

> <PUBCHEM_IUPAC_OPENEYE_NAME>
4-[4-[[4-[[2-(2,6-dioxo-3-piperidyl)-1-oxo-isoindolin-4-yl]oxymethyl]phenyl]methyl]piperazin-1-yl]-3-fluoro-benzonitrile

> <PUBCHEM_IUPAC_CAS_NAME>
4-[4-[[4-[[2-(2,6-dioxo-3-piperidinyl)-1-oxo-3H-isoindol-4-yl]oxymethyl]phenyl]methyl]-1-piperazinyl]-3-fluorobenzonitrile

> <PUBCHEM_IUPAC_NAME_MARKUP>
4-[4-[[4-[[2-(2,6-dioxopiperidin-3-yl)-1-oxo-3<I>H</I>-isoindol-4-yl]oxymethyl]phenyl]methyl]piperazin-1-yl]-3-fluorobenzonitrile

> <PUBCHEM_IUPAC_NAME>
4-[4-[[4-[[2-(2,6-dioxopiperidin-3-yl)-1-oxo-3H-isoindol-4-yl]oxymethyl]phenyl]methyl]piperazin-1-yl]-3-fluorobenzonitrile

> <PUBCHEM_IUPAC_SYSTEMATIC_NAME>
4-[4-[[4-[[2-[2,6-bis(oxidanylidene)piperidin-3-yl]-1-oxidanylidene-3H-isoindol-4-yl]oxymethyl]phenyl]methyl]piperazin-1-yl]-3-fluoranyl-benzenecarbonitrile

> <PUBCHEM_IUPAC_TRADITIONAL_NAME>
4-[4-[4-[[2-(2,6-diketo-3-piperidyl)-1-keto-isoindolin-4-yl]oxymethyl]benzyl]piperazino]-3-fluoro-benzonitrile

> <PUBCHEM_IUPAC_INCHI>
InChI=1S/C32H30FN5O4/c33-26-16-23(17-34)8-9-27(26)37-14-12-36(13-15-37)18-21-4-6-22(7-5-21)20-42-29-3-1-2-24-25(29)19-38(32(24)41)28-10-11-30(39)35-31(28)40/h1-9,16,28H,10-15,18-20H2,(H,35,39,40)

> <PUBCHEM_IUPAC_INCHIKEY>
YTINZZFBHWSAGL-UHFFFAOYSA-N

> <PUBCHEM_XLOGP3_AA>
2.9

> <PUBCHEM_EXACT_MASS>
567.22818262

> <PUBCHEM_MOLECULAR_FORMULA>
C32H30FN5O4

> <PUBCHEM_MOLECULAR_WEIGHT>
567.6

> <PUBCHEM_OPENEYE_CAN_SMILES>
C1CC(=O)NC(=O)C1N2CC3=C(C2=O)C=CC=C3OCC4=CC=C(C=C4)CN5CCN(CC5)C6=C(C=C(C=C6)C#N)F

> <PUBCHEM_OPENEYE_ISO_SMILES>
C1CC(=O)NC(=O)C1N2CC3=C(C2=O)C=CC=C3OCC4=CC=C(C=C4)CN5CCN(CC5)C6=C(C=C(C=C6)C#N)F

> <PUBCHEM_CACTVS_TPSA>
106

> <PUBCHEM_MONOISOTOPIC_WEIGHT>
567.22818262

> <PUBCHEM_TOTAL_CHARGE>
0

> <PUBCHEM_HEAVY_ATOM_COUNT>
42

> <PUBCHEM_ATOM_DEF_STEREO_COUNT>
0

> <PUBCHEM_ATOM_UDEF_STEREO_COUNT>
1

> <PUBCHEM_BOND_DEF_STEREO_COUNT>
0

> <PUBCHEM_BOND_UDEF_STEREO_COUNT>
0

> <PUBCHEM_ISOTOPIC_ATOM_COUNT>
0

> <PUBCHEM_COMPONENT_COUNT>
1

> <PUBCHEM_CACTVS_TAUTO_COUNT>
-1

> <PUBCHEM_COORDINATE_TYPE>
1
5
255

> <PUBCHEM_BONDANNOTATIONS>
18  21  8
18  25  8
21  28  8
24  33  8
24  34  8
25  29  8
26  31  8
26  32  8
28  30  8
29  30  8
31  37  8
32  38  8
33  39  8
34  40  8
35  37  8
35  38  8
39  41  8
40  41  8
11  6  3

$$$$
