155553911
  -OEChem-09292322462D

 63 66  0     0  0  0  0  0  0999 V2000
    4.9641    8.2694    0.0000 S   0  0  0  0  0  0  0  0  0  0  0  0
    2.8660   -7.7694    0.0000 O   0  0  0  0  0  0  0  0  0  0  0  0
    6.3301    2.2306    0.0000 O   0  0  0  0  0  0  0  0  0  0  0  0
    2.8660   -1.7694    0.0000 N   0  0  0  0  0  0  0  0  0  0  0  0
    2.8660   -3.7694    0.0000 N   0  0  0  0  0  0  0  0  0  0  0  0
    4.5981    2.2306    0.0000 N   0  0  0  0  0  0  0  0  0  0  0  0
    2.0000   -2.2694    0.0000 C   0  0  0  0  0  0  0  0  0  0  0  0
    3.7320   -2.2694    0.0000 C   0  0  0  0  0  0  0  0  0  0  0  0
    2.0000   -3.2694    0.0000 C   0  0  0  0  0  0  0  0  0  0  0  0
    3.7320   -3.2694    0.0000 C   0  0  0  0  0  0  0  0  0  0  0  0
    2.8660   -0.7694    0.0000 C   0  0  0  0  0  0  0  0  0  0  0  0
    3.7320   -0.2694    0.0000 C   0  0  0  0  0  0  0  0  0  0  0  0
    2.8660   -4.7694    0.0000 C   0  0  0  0  0  0  0  0  0  0  0  0
    3.7320    0.7306    0.0000 C   0  0  0  0  0  0  0  0  0  0  0  0
    4.5981    1.2306    0.0000 C   0  0  0  0  0  0  0  0  0  0  0  0
    3.7320   -5.2694    0.0000 C   0  0  0  0  0  0  0  0  0  0  0  0
    2.0000   -5.2694    0.0000 C   0  0  0  0  0  0  0  0  0  0  0  0
    3.7320   -6.2694    0.0000 C   0  0  0  0  0  0  0  0  0  0  0  0
    2.0000   -6.2694    0.0000 C   0  0  0  0  0  0  0  0  0  0  0  0
    2.8660   -6.7694    0.0000 C   0  0  0  0  0  0  0  0  0  0  0  0
    5.4641    2.7306    0.0000 C   0  0  0  0  0  0  0  0  0  0  0  0
    5.4641    3.7306    0.0000 C   0  0  0  0  0  0  0  0  0  0  0  0
    4.5981    4.2306    0.0000 C   0  0  0  0  0  0  0  0  0  0  0  0
    6.3301    4.2306    0.0000 C   0  0  0  0  0  0  0  0  0  0  0  0
    5.4641    5.7306    0.0000 C   0  0  0  0  0  0  0  0  0  0  0  0
    4.5981    5.2306    0.0000 C   0  0  0  0  0  0  0  0  0  0  0  0
    6.3301    5.2306    0.0000 C   0  0  0  0  0  0  0  0  0  0  0  0
    2.0000   -8.2694    0.0000 C   0  0  0  0  0  0  0  0  0  0  0  0
    5.4641    6.7306    0.0000 C   0  0  0  0  0  0  0  0  0  0  0  0
    6.2731    7.3184    0.0000 C   0  0  0  0  0  0  0  0  0  0  0  0
    4.6551    7.3184    0.0000 C   0  0  0  0  0  0  0  0  0  0  0  0
    5.9641    8.2694    0.0000 C   0  0  0  0  0  0  0  0  0  0  0  0
    1.7880   -1.6868    0.0000 H   0  0  0  0  0  0  0  0  0  0  0  0
    1.3894   -2.3771    0.0000 H   0  0  0  0  0  0  0  0  0  0  0  0
    4.3426   -2.3771    0.0000 H   0  0  0  0  0  0  0  0  0  0  0  0
    3.9441   -1.6868    0.0000 H   0  0  0  0  0  0  0  0  0  0  0  0
    1.3894   -3.1618    0.0000 H   0  0  0  0  0  0  0  0  0  0  0  0
    1.7880   -3.8520    0.0000 H   0  0  0  0  0  0  0  0  0  0  0  0
    3.9441   -3.8520    0.0000 H   0  0  0  0  0  0  0  0  0  0  0  0
    4.3426   -3.1618    0.0000 H   0  0  0  0  0  0  0  0  0  0  0  0
    2.6540   -0.1868    0.0000 H   0  0  0  0  0  0  0  0  0  0  0  0
    2.2554   -0.8771    0.0000 H   0  0  0  0  0  0  0  0  0  0  0  0
    3.9441   -0.8520    0.0000 H   0  0  0  0  0  0  0  0  0  0  0  0
    4.3426   -0.1618    0.0000 H   0  0  0  0  0  0  0  0  0  0  0  0
    3.5200    1.3132    0.0000 H   0  0  0  0  0  0  0  0  0  0  0  0
    3.1215    0.6229    0.0000 H   0  0  0  0  0  0  0  0  0  0  0  0
    4.8101    0.6480    0.0000 H   0  0  0  0  0  0  0  0  0  0  0  0
    5.2087    1.3382    0.0000 H   0  0  0  0  0  0  0  0  0  0  0  0
    4.2690   -4.9594    0.0000 H   0  0  0  0  0  0  0  0  0  0  0  0
    1.4631   -4.9594    0.0000 H   0  0  0  0  0  0  0  0  0  0  0  0
    4.0611    2.5406    0.0000 H   0  0  0  0  0  0  0  0  0  0  0  0
    4.2690   -6.5794    0.0000 H   0  0  0  0  0  0  0  0  0  0  0  0
    1.4631   -6.5794    0.0000 H   0  0  0  0  0  0  0  0  0  0  0  0
    4.0611    3.9206    0.0000 H   0  0  0  0  0  0  0  0  0  0  0  0
    6.8671    3.9206    0.0000 H   0  0  0  0  0  0  0  0  0  0  0  0
    4.0611    5.5406    0.0000 H   0  0  0  0  0  0  0  0  0  0  0  0
    6.8671    5.5406    0.0000 H   0  0  0  0  0  0  0  0  0  0  0  0
    1.6900   -7.7325    0.0000 H   0  0  0  0  0  0  0  0  0  0  0  0
    1.4631   -8.5794    0.0000 H   0  0  0  0  0  0  0  0  0  0  0  0
    2.3100   -8.8064    0.0000 H   0  0  0  0  0  0  0  0  0  0  0  0
    6.8628    7.1268    0.0000 H   0  0  0  0  0  0  0  0  0  0  0  0
    4.0654    7.1268    0.0000 H   0  0  0  0  0  0  0  0  0  0  0  0
    6.3285    8.7710    0.0000 H   0  0  0  0  0  0  0  0  0  0  0  0
  1 31  1  0  0  0  0
  1 32  1  0  0  0  0
  2 20  1  0  0  0  0
  2 28  1  0  0  0  0
  3 21  2  0  0  0  0
  4  7  1  0  0  0  0
  4  8  1  0  0  0  0
  4 11  1  0  0  0  0
  5  9  1  0  0  0  0
  5 10  1  0  0  0  0
  5 13  1  0  0  0  0
  6 15  1  0  0  0  0
  6 21  1  0  0  0  0
  6 51  1  0  0  0  0
  7  9  1  0  0  0  0
  7 33  1  0  0  0  0
  7 34  1  0  0  0  0
  8 10  1  0  0  0  0
  8 35  1  0  0  0  0
  8 36  1  0  0  0  0
  9 37  1  0  0  0  0
  9 38  1  0  0  0  0
 10 39  1  0  0  0  0
 10 40  1  0  0  0  0
 11 12  1  0  0  0  0
 11 41  1  0  0  0  0
 11 42  1  0  0  0  0
 12 14  1  0  0  0  0
 12 43  1  0  0  0  0
 12 44  1  0  0  0  0
 13 16  2  0  0  0  0
 13 17  1  0  0  0  0
 14 15  1  0  0  0  0
 14 45  1  0  0  0  0
 14 46  1  0  0  0  0
 15 47  1  0  0  0  0
 15 48  1  0  0  0  0
 16 18  1  0  0  0  0
 16 49  1  0  0  0  0
 17 19  2  0  0  0  0
 17 50  1  0  0  0  0
 18 20  2  0  0  0  0
 18 52  1  0  0  0  0
 19 20  1  0  0  0  0
 19 53  1  0  0  0  0
 21 22  1  0  0  0  0
 22 23  2  0  0  0  0
 22 24  1  0  0  0  0
 23 26  1  0  0  0  0
 23 54  1  0  0  0  0
 24 27  2  0  0  0  0
 24 55  1  0  0  0  0
 25 26  2  0  0  0  0
 25 27  1  0  0  0  0
 25 29  1  0  0  0  0
 26 56  1  0  0  0  0
 27 57  1  0  0  0  0
 28 58  1  0  0  0  0
 28 59  1  0  0  0  0
 28 60  1  0  0  0  0
 29 30  1  0  0  0  0
 29 31  2  0  0  0  0
 30 32  2  0  0  0  0
 30 61  1  0  0  0  0
 31 62  1  0  0  0  0
 32 63  1  0  0  0  0
M  END
> <PUBCHEM_COMPOUND_CID>
155553911

> <PUBCHEM_COMPOUND_CANONICALIZED>
1

> <PUBCHEM_CACTVS_COMPLEXITY>
553

> <PUBCHEM_CACTVS_HBOND_ACCEPTOR>
5

> <PUBCHEM_CACTVS_HBOND_DONOR>
1

> <PUBCHEM_CACTVS_ROTATABLE_BOND>
9

> <PUBCHEM_CACTVS_SUBSKEYS>
AAADceB7MABAAAAAAAAAAAAAAAAAASAAAAA8YIAAAAAAAAAB0AAAHgQQAAAADAzF2Aayx4PABAiMAiVSUACDCIAlKhBIiJkObMgMZjLktZuUMShk1hHo6Ye4yMCOwEAAAAAAAACAgAAAAAAAAAAAAAAAAA==

> <PUBCHEM_IUPAC_OPENEYE_NAME>
N-[4-[4-(4-methoxyphenyl)piperazin-1-yl]butyl]-4-(3-thienyl)benzamide

> <PUBCHEM_IUPAC_CAS_NAME>
N-[4-[4-(4-methoxyphenyl)-1-piperazinyl]butyl]-4-(3-thiophenyl)benzamide

> <PUBCHEM_IUPAC_NAME_MARKUP>
<I>N</I>-[4-[4-(4-methoxyphenyl)piperazin-1-yl]butyl]-4-thiophen-3-ylbenzamide

> <PUBCHEM_IUPAC_NAME>
N-[4-[4-(4-methoxyphenyl)piperazin-1-yl]butyl]-4-thiophen-3-ylbenzamide

> <PUBCHEM_IUPAC_SYSTEMATIC_NAME>
N-[4-[4-(4-methoxyphenyl)piperazin-1-yl]butyl]-4-thiophen-3-yl-benzamide

> <PUBCHEM_IUPAC_TRADITIONAL_NAME>
N-[4-[4-(4-methoxyphenyl)piperazino]butyl]-4-(3-thienyl)benzamide

> <PUBCHEM_IUPAC_INCHI>
InChI=1S/C26H31N3O2S/c1-31-25-10-8-24(9-11-25)29-17-15-28(16-18-29)14-3-2-13-27-26(30)22-6-4-21(5-7-22)23-12-19-32-20-23/h4-12,19-20H,2-3,13-18H2,1H3,(H,27,30)

> <PUBCHEM_IUPAC_INCHIKEY>
XUMFZHDTWDHUIE-UHFFFAOYSA-N

> <PUBCHEM_XLOGP3_AA>
4.8

> <PUBCHEM_EXACT_MASS>
449.21369841

> <PUBCHEM_MOLECULAR_FORMULA>
C26H31N3O2S

> <PUBCHEM_MOLECULAR_WEIGHT>
449.6

> <PUBCHEM_OPENEYE_CAN_SMILES>
COC1=CC=C(C=C1)N2CCN(CC2)CCCCNC(=O)C3=CC=C(C=C3)C4=CSC=C4

> <PUBCHEM_OPENEYE_ISO_SMILES>
COC1=CC=C(C=C1)N2CCN(CC2)CCCCNC(=O)C3=CC=C(C=C3)C4=CSC=C4

> <PUBCHEM_CACTVS_TPSA>
73

> <PUBCHEM_MONOISOTOPIC_WEIGHT>
449.21369841

> <PUBCHEM_TOTAL_CHARGE>
0

> <PUBCHEM_HEAVY_ATOM_COUNT>
32

> <PUBCHEM_ATOM_DEF_STEREO_COUNT>
0

> <PUBCHEM_ATOM_UDEF_STEREO_COUNT>
0

> <PUBCHEM_BOND_DEF_STEREO_COUNT>
0

> <PUBCHEM_BOND_UDEF_STEREO_COUNT>
0

> <PUBCHEM_ISOTOPIC_ATOM_COUNT>
0

> <PUBCHEM_COMPONENT_COUNT>
1

> <PUBCHEM_CACTVS_TAUTO_COUNT>
-1

> <PUBCHEM_COORDINATE_TYPE>
1
5
255

> <PUBCHEM_BONDANNOTATIONS>
1  31  8
1  32  8
13  16  8
13  17  8
16  18  8
17  19  8
18  20  8
19  20  8
22  23  8
22  24  8
23  26  8
24  27  8
25  26  8
25  27  8
29  30  8
29  31  8
30  32  8

$$$$
