25128755
  -OEChem-09292322232D

 57 61  0     1  0  0  0  0  0999 V2000
    8.8914    4.8094    0.0000 S   0  0  0  0  0  0  0  0  0  0  0  0
    7.5409    1.4664    0.0000 O   0  0  0  0  0  0  0  0  0  0  0  0
    2.8660   -2.7884    0.0000 O   0  0  0  0  0  0  0  0  0  0  0  0
    7.6995   -1.8269    0.0000 N   0  0  0  0  0  0  0  0  0  0  0  0
    6.4103   -4.5931    0.0000 N   0  0  0  0  0  0  0  0  0  0  0  0
    8.9228   -1.7189    0.0000 C   0  0  2  0  0  0  0  0  0  0  0  0
    9.4689   -0.8812    0.0000 C   0  0  1  0  0  0  0  0  0  0  0  0
    8.3279    0.8493    0.0000 C   0  0  0  0  0  0  0  0  0  0  0  0
    7.7965    0.0022    0.0000 C   0  0  0  0  0  0  0  0  0  0  0  0
    9.2977    0.6057    0.0000 C   0  0  0  0  0  0  0  0  0  0  0  0
   10.2358   -2.4204    0.0000 C   0  0  0  0  0  0  0  0  0  0  0  0
   10.7819   -1.5826    0.0000 C   0  0  0  0  0  0  0  0  0  0  0  0
    6.7210   -2.0331    0.0000 C   0  0  0  0  0  0  0  0  0  0  0  0
    8.4688    1.8394    0.0000 C   0  0  0  0  0  0  0  0  0  0  0  0
    6.4103   -2.9836    0.0000 C   0  0  0  0  0  0  0  0  0  0  0  0
    9.3966    2.2123    0.0000 C   0  0  0  0  0  0  0  0  0  0  0  0
    7.6818    2.4564    0.0000 C   0  0  0  0  0  0  0  0  0  0  0  0
    5.4641   -3.2884    0.0000 C   0  0  0  0  0  0  0  0  0  0  0  0
    6.9939   -3.7884    0.0000 C   0  0  0  0  0  0  0  0  0  0  0  0
    9.5375    3.2024    0.0000 C   0  0  0  0  0  0  0  0  0  0  0  0
    7.8227    3.4464    0.0000 C   0  0  0  0  0  0  0  0  0  0  0  0
    5.4641   -4.2884    0.0000 C   0  0  0  0  0  0  0  0  0  0  0  0
    8.7505    3.8194    0.0000 C   0  0  0  0  0  0  0  0  0  0  0  0
    4.5981   -2.7884    0.0000 C   0  0  0  0  0  0  0  0  0  0  0  0
    4.5981   -4.7884    0.0000 C   0  0  0  0  0  0  0  0  0  0  0  0
    3.7320   -3.2884    0.0000 C   0  0  0  0  0  0  0  0  0  0  0  0
    3.7320   -4.2884    0.0000 C   0  0  0  0  0  0  0  0  0  0  0  0
    9.8192    5.1824    0.0000 C   0  0  0  0  0  0  0  0  0  0  0  0
    2.0000   -3.2884    0.0000 C   0  0  0  0  0  0  0  0  0  0  0  0
    8.4586   -2.4310    0.0000 H   0  0  0  0  0  0  0  0  0  0  0  0
    9.9331   -0.1691    0.0000 H   0  0  0  0  0  0  0  0  0  0  0  0
    7.3239    0.4035    0.0000 H   0  0  0  0  0  0  0  0  0  0  0  0
    7.3317   -0.4081    0.0000 H   0  0  0  0  0  0  0  0  0  0  0  0
    9.9177    0.6022    0.0000 H   0  0  0  0  0  0  0  0  0  0  0  0
    9.3756    1.2208    0.0000 H   0  0  0  0  0  0  0  0  0  0  0  0
    9.9279   -2.9585    0.0000 H   0  0  0  0  0  0  0  0  0  0  0  0
   10.7648   -2.7437    0.0000 H   0  0  0  0  0  0  0  0  0  0  0  0
   11.3109   -1.9060    0.0000 H   0  0  0  0  0  0  0  0  0  0  0  0
   11.0898   -1.0445    0.0000 H   0  0  0  0  0  0  0  0  0  0  0  0
    6.7004   -1.4135    0.0000 H   0  0  0  0  0  0  0  0  0  0  0  0
    6.1072   -1.9458    0.0000 H   0  0  0  0  0  0  0  0  0  0  0  0
    6.9657    1.2351    0.0000 H   0  0  0  0  0  0  0  0  0  0  0  0
    9.8845    1.8298    0.0000 H   0  0  0  0  0  0  0  0  0  0  0  0
    7.1066    2.2251    0.0000 H   0  0  0  0  0  0  0  0  0  0  0  0
    7.6139   -3.7884    0.0000 H   0  0  0  0  0  0  0  0  0  0  0  0
   10.1127    3.4336    0.0000 H   0  0  0  0  0  0  0  0  0  0  0  0
    7.3348    3.8290    0.0000 H   0  0  0  0  0  0  0  0  0  0  0  0
    6.6029   -5.1824    0.0000 H   0  0  0  0  0  0  0  0  0  0  0  0
    4.5981   -2.1684    0.0000 H   0  0  0  0  0  0  0  0  0  0  0  0
    4.5981   -5.4084    0.0000 H   0  0  0  0  0  0  0  0  0  0  0  0
    3.1951   -4.5984    0.0000 H   0  0  0  0  0  0  0  0  0  0  0  0
   10.0505    4.6072    0.0000 H   0  0  0  0  0  0  0  0  0  0  0  0
   10.3945    5.4137    0.0000 H   0  0  0  0  0  0  0  0  0  0  0  0
    9.5880    5.7577    0.0000 H   0  0  0  0  0  0  0  0  0  0  0  0
    1.6900   -2.7514    0.0000 H   0  0  0  0  0  0  0  0  0  0  0  0
    1.4631   -3.5984    0.0000 H   0  0  0  0  0  0  0  0  0  0  0  0
    2.3100   -3.8253    0.0000 H   0  0  0  0  0  0  0  0  0  0  0  0
  1 23  1  0  0  0  0
  1 28  1  0  0  0  0
  2  8  1  0  0  0  0
  2 42  1  0  0  0  0
  3 26  1  0  0  0  0
  3 29  1  0  0  0  0
  4  6  1  0  0  0  0
  4  7  1  0  0  0  0
  4 13  1  0  0  0  0
  5 19  1  0  0  0  0
  5 22  1  0  0  0  0
  5 48  1  0  0  0  0
  6  9  1  0  0  0  0
  6 11  1  0  0  0  0
  6 30  1  1  0  0  0
  7 10  1  0  0  0  0
  7 12  1  0  0  0  0
  7 31  1  6  0  0  0
  8  9  1  0  0  0  0
  8 10  1  0  0  0  0
  8 14  1  0  0  0  0
  9 32  1  0  0  0  0
  9 33  1  0  0  0  0
 10 34  1  0  0  0  0
 10 35  1  0  0  0  0
 11 12  1  0  0  0  0
 11 36  1  0  0  0  0
 11 37  1  0  0  0  0
 12 38  1  0  0  0  0
 12 39  1  0  0  0  0
 13 15  1  0  0  0  0
 13 40  1  0  0  0  0
 13 41  1  0  0  0  0
 14 16  2  0  0  0  0
 14 17  1  0  0  0  0
 15 18  1  0  0  0  0
 15 19  2  0  0  0  0
 16 20  1  0  0  0  0
 16 43  1  0  0  0  0
 17 21  2  0  0  0  0
 17 44  1  0  0  0  0
 18 22  2  0  0  0  0
 18 24  1  0  0  0  0
 19 45  1  0  0  0  0
 20 23  2  0  0  0  0
 20 46  1  0  0  0  0
 21 23  1  0  0  0  0
 21 47  1  0  0  0  0
 22 25  1  0  0  0  0
 24 26  2  0  0  0  0
 24 49  1  0  0  0  0
 25 27  2  0  0  0  0
 25 50  1  0  0  0  0
 26 27  1  0  0  0  0
 27 51  1  0  0  0  0
 28 52  1  0  0  0  0
 28 53  1  0  0  0  0
 28 54  1  0  0  0  0
 29 55  1  0  0  0  0
 29 56  1  0  0  0  0
 29 57  1  0  0  0  0
M  END
> <PUBCHEM_COMPOUND_CID>
25128755

> <PUBCHEM_COMPOUND_CANONICALIZED>
1

> <PUBCHEM_CACTVS_COMPLEXITY>
553

> <PUBCHEM_CACTVS_HBOND_ACCEPTOR>
4

> <PUBCHEM_CACTVS_HBOND_DONOR>
2

> <PUBCHEM_CACTVS_ROTATABLE_BOND>
5

> <PUBCHEM_CACTVS_SUBSKEYS>
AAADceB7MABAAAAAAAAAAAAAAAAAAWLAAAA8YIAABgAAAFgB9AAAHgQQCAAADGzB3ga+x/PJlgigAzRnRACCiCAxKjAI2bg+bJgMJuLk8ZuEcChm0BHI+Aew0PIOkEABAAACAAAggAIAAAQAAAAAAAAAAA==

> <PUBCHEM_IUPAC_OPENEYE_NAME>
(1S,5R)-8-[(5-methoxy-1H-indol-3-yl)methyl]-3-(4-methylsulfanylphenyl)-8-azabicyclo[3.2.1]octan-3-ol

> <PUBCHEM_IUPAC_CAS_NAME>
(1S,5R)-8-[(5-methoxy-1H-indol-3-yl)methyl]-3-[4-(methylthio)phenyl]-8-azabicyclo[3.2.1]octan-3-ol

> <PUBCHEM_IUPAC_NAME_MARKUP>
(1<I>S</I>,5<I>R</I>)-8-[(5-methoxy-1<I>H</I>-indol-3-yl)methyl]-3-(4-methylsulfanylphenyl)-8-azabicyclo[3.2.1]octan-3-ol

> <PUBCHEM_IUPAC_NAME>
(1S,5R)-8-[(5-methoxy-1H-indol-3-yl)methyl]-3-(4-methylsulfanylphenyl)-8-azabicyclo[3.2.1]octan-3-ol

> <PUBCHEM_IUPAC_SYSTEMATIC_NAME>
(1S,5R)-8-[(5-methoxy-1H-indol-3-yl)methyl]-3-(4-methylsulfanylphenyl)-8-azabicyclo[3.2.1]octan-3-ol

> <PUBCHEM_IUPAC_TRADITIONAL_NAME>
(1S,5R)-8-[(5-methoxy-1H-indol-3-yl)methyl]-3-[4-(methylthio)phenyl]-8-azabicyclo[3.2.1]octan-3-ol

> <PUBCHEM_IUPAC_INCHI>
InChI=1S/C24H28N2O2S/c1-28-20-7-10-23-22(11-20)16(14-25-23)15-26-18-5-6-19(26)13-24(27,12-18)17-3-8-21(29-2)9-4-17/h3-4,7-11,14,18-19,25,27H,5-6,12-13,15H2,1-2H3/t18-,19+,24?

> <PUBCHEM_IUPAC_INCHIKEY>
KNKGKWINGHKSAD-QRQCMCJISA-N

> <PUBCHEM_XLOGP3_AA>
4.1

> <PUBCHEM_EXACT_MASS>
408.18714931

> <PUBCHEM_MOLECULAR_FORMULA>
C24H28N2O2S

> <PUBCHEM_MOLECULAR_WEIGHT>
408.6

> <PUBCHEM_OPENEYE_CAN_SMILES>
COC1=CC2=C(C=C1)NC=C2CN3C4CCC3CC(C4)(C5=CC=C(C=C5)SC)O

> <PUBCHEM_OPENEYE_ISO_SMILES>
COC1=CC2=C(C=C1)NC=C2CN3[C@@H]4CC[C@H]3CC(C4)(C5=CC=C(C=C5)SC)O

> <PUBCHEM_CACTVS_TPSA>
73.8

> <PUBCHEM_MONOISOTOPIC_WEIGHT>
408.18714931

> <PUBCHEM_TOTAL_CHARGE>
0

> <PUBCHEM_HEAVY_ATOM_COUNT>
29

> <PUBCHEM_ATOM_DEF_STEREO_COUNT>
2

> <PUBCHEM_ATOM_UDEF_STEREO_COUNT>
0

> <PUBCHEM_BOND_DEF_STEREO_COUNT>
0

> <PUBCHEM_BOND_UDEF_STEREO_COUNT>
0

> <PUBCHEM_ISOTOPIC_ATOM_COUNT>
0

> <PUBCHEM_COMPONENT_COUNT>
1

> <PUBCHEM_CACTVS_TAUTO_COUNT>
-1

> <PUBCHEM_COORDINATE_TYPE>
1
5
255

> <PUBCHEM_BONDANNOTATIONS>
14  16  8
14  17  8
15  18  8
15  19  8
16  20  8
17  21  8
18  22  8
18  24  8
20  23  8
21  23  8
22  25  8
24  26  8
25  27  8
26  27  8
5  19  8
5  22  8
6  30  5
7  31  6

$$$$
