11716449
  -OEChem-09292322272D

 47 50  0     1  0  0  0  0  0999 V2000
    5.5321    1.6610    0.0000 N   0  0  3  0  0  0  0  0  0  0  0  0
    3.9290   -0.5061    0.0000 N   0  0  0  0  0  0  0  0  0  0  0  0
    5.5321   -0.3390    0.0000 C   0  0  0  0  0  0  0  0  0  0  0  0
    6.3981    0.1610    0.0000 C   0  0  0  0  0  0  0  0  0  0  0  0
    6.3981    1.1610    0.0000 C   0  0  0  0  0  0  0  0  0  0  0  0
    4.6660    0.1610    0.0000 C   0  0  0  0  0  0  0  0  0  0  0  0
    5.5321    2.6610    0.0000 C   0  0  0  0  0  0  0  0  0  0  0  0
    4.6660    1.1610    0.0000 C   0  0  0  0  0  0  0  0  0  0  0  0
    5.3229   -1.3108    0.0000 C   0  0  0  0  0  0  0  0  0  0  0  0
    4.6660    3.1610    0.0000 C   0  0  0  0  0  0  0  0  0  0  0  0
    3.8000    1.6610    0.0000 C   0  0  0  0  0  0  0  0  0  0  0  0
    3.8000    2.6610    0.0000 C   0  0  0  0  0  0  0  0  0  0  0  0
    4.3341   -1.4138    0.0000 C   0  0  0  0  0  0  0  0  0  0  0  0
    5.1900    0.7214    0.0000 C   0  0  0  0  0  0  0  0  0  0  0  0
    5.9436   -2.1396    0.0000 C   0  0  0  0  0  0  0  0  0  0  0  0
    2.9061    1.1264    0.0000 C   0  0  0  0  0  0  0  0  0  0  0  0
    2.9061    3.1957    0.0000 C   0  0  0  0  0  0  0  0  0  0  0  0
    3.8976   -2.3528    0.0000 C   0  0  0  0  0  0  0  0  0  0  0  0
    4.2052    0.5478    0.0000 C   0  0  0  0  0  0  0  0  0  0  0  0
    5.5289   -3.0884    0.0000 C   0  0  0  0  0  0  0  0  0  0  0  0
    2.0000    1.6402    0.0000 C   0  0  0  0  0  0  0  0  0  0  0  0
    2.0000    2.6818    0.0000 C   0  0  0  0  0  0  0  0  0  0  0  0
    4.4991   -3.1957    0.0000 C   0  0  0  0  0  0  0  0  0  0  0  0
    6.6101   -0.4216    0.0000 H   0  0  0  0  0  0  0  0  0  0  0  0
    7.0087    0.2687    0.0000 H   0  0  0  0  0  0  0  0  0  0  0  0
    7.0087    1.0534    0.0000 H   0  0  0  0  0  0  0  0  0  0  0  0
    6.6101    1.7436    0.0000 H   0  0  0  0  0  0  0  0  0  0  0  0
    6.1426    2.5534    0.0000 H   0  0  0  0  0  0  0  0  0  0  0  0
    5.7441    3.2436    0.0000 H   0  0  0  0  0  0  0  0  0  0  0  0
    5.2766    1.0534    0.0000 H   0  0  0  0  0  0  0  0  0  0  0  0
    4.8781    1.7436    0.0000 H   0  0  0  0  0  0  0  0  0  0  0  0
    5.0646    3.6360    0.0000 H   0  0  0  0  0  0  0  0  0  0  0  0
    4.2675    3.6360    0.0000 H   0  0  0  0  0  0  0  0  0  0  0  0
    3.3223   -0.3782    0.0000 H   0  0  0  0  0  0  0  0  0  0  0  0
    5.1900    0.1014    0.0000 H   0  0  0  0  0  0  0  0  0  0  0  0
    5.8006    0.6137    0.0000 H   0  0  0  0  0  0  0  0  0  0  0  0
    6.5595   -2.0682    0.0000 H   0  0  0  0  0  0  0  0  0  0  0  0
    2.9132    0.5064    0.0000 H   0  0  0  0  0  0  0  0  0  0  0  0
    2.9132    3.8156    0.0000 H   0  0  0  0  0  0  0  0  0  0  0  0
    3.2803   -2.4099    0.0000 H   0  0  0  0  0  0  0  0  0  0  0  0
    4.0976    1.1584    0.0000 H   0  0  0  0  0  0  0  0  0  0  0  0
    3.5946    0.4401    0.0000 H   0  0  0  0  0  0  0  0  0  0  0  0
    4.3128   -0.0628    0.0000 H   0  0  0  0  0  0  0  0  0  0  0  0
    5.8949   -3.5888    0.0000 H   0  0  0  0  0  0  0  0  0  0  0  0
    1.4643    1.3282    0.0000 H   0  0  0  0  0  0  0  0  0  0  0  0
    1.4643    2.9939    0.0000 H   0  0  0  0  0  0  0  0  0  0  0  0
    4.2442   -3.7609    0.0000 H   0  0  0  0  0  0  0  0  0  0  0  0
  1  5  1  0  0  0  0
  1  7  1  0  0  0  0
  1 14  1  0  0  0  0
  2  6  1  0  0  0  0
  2 13  1  0  0  0  0
  2 34  1  0  0  0  0
  3  4  1  0  0  0  0
  3  6  2  0  0  0  0
  3  9  1  0  0  0  0
  4  5  1  0  0  0  0
  4 24  1  0  0  0  0
  4 25  1  0  0  0  0
  5 26  1  0  0  0  0
  5 27  1  0  0  0  0
  6  8  1  0  0  0  0
  7 10  1  0  0  0  0
  7 28  1  0  0  0  0
  7 29  1  0  0  0  0
  8 11  1  0  0  0  0
  8 30  1  0  0  0  0
  8 31  1  0  0  0  0
  9 13  1  0  0  0  0
  9 15  2  0  0  0  0
 10 12  1  0  0  0  0
 10 32  1  0  0  0  0
 10 33  1  0  0  0  0
 11 12  1  0  0  0  0
 11 16  2  0  0  0  0
 12 17  2  0  0  0  0
 13 18  2  0  0  0  0
 14 19  1  0  0  0  0
 14 35  1  0  0  0  0
 14 36  1  0  0  0  0
 15 20  1  0  0  0  0
 15 37  1  0  0  0  0
 16 21  1  0  0  0  0
 16 38  1  0  0  0  0
 17 22  1  0  0  0  0
 17 39  1  0  0  0  0
 18 23  1  0  0  0  0
 18 40  1  0  0  0  0
 19 41  1  0  0  0  0
 19 42  1  0  0  0  0
 19 43  1  0  0  0  0
 20 23  2  0  0  0  0
 20 44  1  0  0  0  0
 21 22  2  0  0  0  0
 21 45  1  0  0  0  0
 22 46  1  0  0  0  0
 23 47  1  0  0  0  0
M  END
> <PUBCHEM_COMPOUND_CID>
11716449

> <PUBCHEM_COMPOUND_CANONICALIZED>
1

> <PUBCHEM_CACTVS_COMPLEXITY>
382

> <PUBCHEM_CACTVS_HBOND_ACCEPTOR>
1

> <PUBCHEM_CACTVS_HBOND_DONOR>
1

> <PUBCHEM_CACTVS_ROTATABLE_BOND>
1

> <PUBCHEM_CACTVS_SUBSKEYS>
AAADceB7AAAAAAAAAAAAAAAAAAAAAWAAAAAwYAAAAAAAAFix9AAAHAAQAAAADAjBHgQywPPJkACgAyRiRACCgCAhAiAImSA4ZJgIIOLAkZGEIAhgkADIyAcQgMAOgAAAAAASAAAAAAAAACQAAAAAAAAAAA==

> <PUBCHEM_IUPAC_OPENEYE_NAME>
11-ethyl-11,21-diazatetracyclo[12.7.0.03,8.015,20]henicosa-1(14),3,5,7,15,17,19-heptaene

> <PUBCHEM_IUPAC_CAS_NAME>
11-ethyl-11,21-diazatetracyclo[12.7.0.03,8.015,20]heneicosa-1(14),3,5,7,15,17,19-heptaene

> <PUBCHEM_IUPAC_NAME_MARKUP>
11-ethyl-11,21-diazatetracyclo[12.7.0.0<SUP>3,8</SUP>.0<SUP>15,20</SUP>]henicosa-1(14),3,5,7,15,17,19-heptaene

> <PUBCHEM_IUPAC_NAME>
11-ethyl-11,21-diazatetracyclo[12.7.0.03,8.015,20]henicosa-1(14),3,5,7,15,17,19-heptaene

> <PUBCHEM_IUPAC_SYSTEMATIC_NAME>
11-ethyl-11,21-diazatetracyclo[12.7.0.03,8.015,20]henicosa-1(14),3,5,7,15,17,19-heptaene

> <PUBCHEM_IUPAC_TRADITIONAL_NAME>
11-ethyl-11,21-diazatetracyclo[12.7.0.03,8.015,20]heneicosa-1(14),3,5,7,15,17,19-heptaene

> <PUBCHEM_IUPAC_INCHI>
InChI=1S/C21H24N2/c1-2-23-13-11-16-7-3-4-8-17(16)15-21-19(12-14-23)18-9-5-6-10-20(18)22-21/h3-10,22H,2,11-15H2,1H3

> <PUBCHEM_IUPAC_INCHIKEY>
HNSLMUBRFVOOOR-UHFFFAOYSA-N

> <PUBCHEM_XLOGP3_AA>
4.7

> <PUBCHEM_EXACT_MASS>
304.193948774

> <PUBCHEM_MOLECULAR_FORMULA>
C21H24N2

> <PUBCHEM_MOLECULAR_WEIGHT>
304.4

> <PUBCHEM_OPENEYE_CAN_SMILES>
CCN1CCC2=CC=CC=C2CC3=C(CC1)C4=CC=CC=C4N3

> <PUBCHEM_OPENEYE_ISO_SMILES>
CCN1CCC2=CC=CC=C2CC3=C(CC1)C4=CC=CC=C4N3

> <PUBCHEM_CACTVS_TPSA>
19

> <PUBCHEM_MONOISOTOPIC_WEIGHT>
304.193948774

> <PUBCHEM_TOTAL_CHARGE>
0

> <PUBCHEM_HEAVY_ATOM_COUNT>
23

> <PUBCHEM_ATOM_DEF_STEREO_COUNT>
0

> <PUBCHEM_ATOM_UDEF_STEREO_COUNT>
0

> <PUBCHEM_BOND_DEF_STEREO_COUNT>
0

> <PUBCHEM_BOND_UDEF_STEREO_COUNT>
0

> <PUBCHEM_ISOTOPIC_ATOM_COUNT>
0

> <PUBCHEM_COMPONENT_COUNT>
1

> <PUBCHEM_CACTVS_TAUTO_COUNT>
-1

> <PUBCHEM_COORDINATE_TYPE>
1
5
255

> <PUBCHEM_BONDANNOTATIONS>
11  12  8
11  16  8
12  17  8
13  18  8
15  20  8
16  21  8
17  22  8
18  23  8
2  13  8
2  6  8
20  23  8
21  22  8
3  6  8
3  9  8
9  13  8
9  15  8

$$$$
