44589593
  -OEChem-09292322072D

 59 63  0     0  0  0  0  0  0999 V2000
    6.8529    3.3034    0.0000 S   0  0  0  0  0  0  0  0  0  0  0  0
    2.8660   -6.1550    0.0000 F   0  0  0  0  0  0  0  0  0  0  0  0
    7.8034    2.9927    0.0000 O   0  0  0  0  0  0  0  0  0  0  0  0
    5.9024    3.6141    0.0000 O   0  0  0  0  0  0  0  0  0  0  0  0
    6.2619   -4.1550    0.0000 O   0  0  0  0  0  0  0  0  0  0  0  0
    5.6103   -0.4987    0.0000 N   0  0  0  0  0  0  0  0  0  0  0  0
    6.5422    2.3529    0.0000 N   0  0  0  0  0  0  0  0  0  0  0  0
    4.6783   -3.3502    0.0000 N   0  0  0  0  0  0  0  0  0  0  0  0
    4.6783   -4.9597    0.0000 N   0  0  0  0  0  0  0  0  0  0  0  0
    5.9209    0.4518    0.0000 C   0  0  0  0  0  0  0  0  0  0  0  0
    4.9889   -2.3997    0.0000 C   0  0  0  0  0  0  0  0  0  0  0  0
    4.6318   -0.7049    0.0000 C   0  0  0  0  0  0  0  0  0  0  0  0
    6.2781   -1.2430    0.0000 C   0  0  0  0  0  0  0  0  0  0  0  0
    5.2531    1.1962    0.0000 C   0  0  0  0  0  0  0  0  0  0  0  0
    6.8994    0.6581    0.0000 C   0  0  0  0  0  0  0  0  0  0  0  0
    4.3211   -1.6554    0.0000 C   0  0  0  0  0  0  0  0  0  0  0  0
    5.9674   -2.1935    0.0000 C   0  0  0  0  0  0  0  0  0  0  0  0
    5.5637    2.1467    0.0000 C   0  0  0  0  0  0  0  0  0  0  0  0
    7.2101    1.6086    0.0000 C   0  0  0  0  0  0  0  0  0  0  0  0
    3.7320   -3.6550    0.0000 C   0  0  0  0  0  0  0  0  0  0  0  0
    5.2619   -4.1550    0.0000 C   0  0  0  0  0  0  0  0  0  0  0  0
    3.7320   -4.6550    0.0000 C   0  0  0  0  0  0  0  0  0  0  0  0
    7.1636    4.2539    0.0000 C   0  0  0  0  0  0  0  0  0  0  0  0
    2.8660   -3.1550    0.0000 C   0  0  0  0  0  0  0  0  0  0  0  0
    2.8660   -5.1550    0.0000 C   0  0  0  0  0  0  0  0  0  0  0  0
    8.1421    4.4601    0.0000 C   0  0  0  0  0  0  0  0  0  0  0  0
    6.4957    4.9982    0.0000 C   0  0  0  0  0  0  0  0  0  0  0  0
    2.0000   -3.6550    0.0000 C   0  0  0  0  0  0  0  0  0  0  0  0
    2.0000   -4.6550    0.0000 C   0  0  0  0  0  0  0  0  0  0  0  0
    8.4527    5.4107    0.0000 C   0  0  0  0  0  0  0  0  0  0  0  0
    6.8064    5.9488    0.0000 C   0  0  0  0  0  0  0  0  0  0  0  0
    7.7849    6.1550    0.0000 C   0  0  0  0  0  0  0  0  0  0  0  0
    6.3350   -0.0096    0.0000 H   0  0  0  0  0  0  0  0  0  0  0  0
    5.4030   -2.8612    0.0000 H   0  0  0  0  0  0  0  0  0  0  0  0
    4.6112   -0.0852    0.0000 H   0  0  0  0  0  0  0  0  0  0  0  0
    4.0179   -0.6175    0.0000 H   0  0  0  0  0  0  0  0  0  0  0  0
    6.8250   -1.5350    0.0000 H   0  0  0  0  0  0  0  0  0  0  0  0
    6.6607   -0.7551    0.0000 H   0  0  0  0  0  0  0  0  0  0  0  0
    4.7062    1.4882    0.0000 H   0  0  0  0  0  0  0  0  0  0  0  0
    4.8705    0.7082    0.0000 H   0  0  0  0  0  0  0  0  0  0  0  0
    6.9200    0.0384    0.0000 H   0  0  0  0  0  0  0  0  0  0  0  0
    7.5132    0.5707    0.0000 H   0  0  0  0  0  0  0  0  0  0  0  0
    3.7742   -1.3634    0.0000 H   0  0  0  0  0  0  0  0  0  0  0  0
    3.9385   -2.1433    0.0000 H   0  0  0  0  0  0  0  0  0  0  0  0
    5.9880   -2.8132    0.0000 H   0  0  0  0  0  0  0  0  0  0  0  0
    6.5812   -2.2808    0.0000 H   0  0  0  0  0  0  0  0  0  0  0  0
    5.5432    2.7663    0.0000 H   0  0  0  0  0  0  0  0  0  0  0  0
    4.9499    2.2340    0.0000 H   0  0  0  0  0  0  0  0  0  0  0  0
    7.7570    1.3166    0.0000 H   0  0  0  0  0  0  0  0  0  0  0  0
    7.5926    2.0965    0.0000 H   0  0  0  0  0  0  0  0  0  0  0  0
    4.8709   -5.5490    0.0000 H   0  0  0  0  0  0  0  0  0  0  0  0
    2.8660   -2.5350    0.0000 H   0  0  0  0  0  0  0  0  0  0  0  0
    8.5561    3.9987    0.0000 H   0  0  0  0  0  0  0  0  0  0  0  0
    5.8890    4.8704    0.0000 H   0  0  0  0  0  0  0  0  0  0  0  0
    1.4631   -3.3450    0.0000 H   0  0  0  0  0  0  0  0  0  0  0  0
    1.4631   -4.9650    0.0000 H   0  0  0  0  0  0  0  0  0  0  0  0
    9.0594    5.5385    0.0000 H   0  0  0  0  0  0  0  0  0  0  0  0
    6.3923    6.4102    0.0000 H   0  0  0  0  0  0  0  0  0  0  0  0
    7.9775    6.7443    0.0000 H   0  0  0  0  0  0  0  0  0  0  0  0
  1  3  2  0  0  0  0
  1  4  2  0  0  0  0
  1  7  1  0  0  0  0
  1 23  1  0  0  0  0
  2 25  1  0  0  0  0
  5 21  2  0  0  0  0
  6 10  1  0  0  0  0
  6 12  1  0  0  0  0
  6 13  1  0  0  0  0
  7 18  1  0  0  0  0
  7 19  1  0  0  0  0
  8 11  1  0  0  0  0
  8 20  1  0  0  0  0
  8 21  1  0  0  0  0
  9 21  1  0  0  0  0
  9 22  1  0  0  0  0
  9 51  1  0  0  0  0
 10 14  1  0  0  0  0
 10 15  1  0  0  0  0
 10 33  1  0  0  0  0
 11 16  1  0  0  0  0
 11 17  1  0  0  0  0
 11 34  1  0  0  0  0
 12 16  1  0  0  0  0
 12 35  1  0  0  0  0
 12 36  1  0  0  0  0
 13 17  1  0  0  0  0
 13 37  1  0  0  0  0
 13 38  1  0  0  0  0
 14 18  1  0  0  0  0
 14 39  1  0  0  0  0
 14 40  1  0  0  0  0
 15 19  1  0  0  0  0
 15 41  1  0  0  0  0
 15 42  1  0  0  0  0
 16 43  1  0  0  0  0
 16 44  1  0  0  0  0
 17 45  1  0  0  0  0
 17 46  1  0  0  0  0
 18 47  1  0  0  0  0
 18 48  1  0  0  0  0
 19 49  1  0  0  0  0
 19 50  1  0  0  0  0
 20 22  2  0  0  0  0
 20 24  1  0  0  0  0
 22 25  1  0  0  0  0
 23 26  2  0  0  0  0
 23 27  1  0  0  0  0
 24 28  2  0  0  0  0
 24 52  1  0  0  0  0
 25 29  2  0  0  0  0
 26 30  1  0  0  0  0
 26 53  1  0  0  0  0
 27 31  2  0  0  0  0
 27 54  1  0  0  0  0
 28 29  1  0  0  0  0
 28 55  1  0  0  0  0
 29 56  1  0  0  0  0
 30 32  2  0  0  0  0
 30 57  1  0  0  0  0
 31 32  1  0  0  0  0
 31 58  1  0  0  0  0
 32 59  1  0  0  0  0
M  END
> <PUBCHEM_COMPOUND_CID>
44589593

> <PUBCHEM_COMPOUND_CANONICALIZED>
1

> <PUBCHEM_CACTVS_COMPLEXITY>
769

> <PUBCHEM_CACTVS_HBOND_ACCEPTOR>
6

> <PUBCHEM_CACTVS_HBOND_DONOR>
1

> <PUBCHEM_CACTVS_ROTATABLE_BOND>
4

> <PUBCHEM_CACTVS_SUBSKEYS>
AAADceB7sQBAAAAAAAAAAAAAAAAAAWAAAAA8eIEAAAAAAFgBQAAAHwQQQAAACCjBUAwxwYPAAAKIACRCUHDCABAhAgAIiBgIdIiIYCLA0ZGUIAhohgLIyCcQAAAAAAAAAAAAACAAAAAAAAAAQAAAAAAAAA==

> <PUBCHEM_IUPAC_OPENEYE_NAME>
3-[1-[1-(benzenesulfonyl)-4-piperidyl]-4-piperidyl]-7-fluoro-1H-benzimidazol-2-one

> <PUBCHEM_IUPAC_CAS_NAME>
3-[1-[1-(benzenesulfonyl)-4-piperidinyl]-4-piperidinyl]-7-fluoro-1H-benzimidazol-2-one

> <PUBCHEM_IUPAC_NAME_MARKUP>
3-[1-[1-(benzenesulfonyl)piperidin-4-yl]piperidin-4-yl]-7-fluoro-1<I>H</I>-benzimidazol-2-one

> <PUBCHEM_IUPAC_NAME>
3-[1-[1-(benzenesulfonyl)piperidin-4-yl]piperidin-4-yl]-7-fluoro-1H-benzimidazol-2-one

> <PUBCHEM_IUPAC_SYSTEMATIC_NAME>
7-fluoranyl-3-[1-[1-(phenylsulfonyl)piperidin-4-yl]piperidin-4-yl]-1H-benzimidazol-2-one

> <PUBCHEM_IUPAC_TRADITIONAL_NAME>
3-[1-(1-besyl-4-piperidyl)-4-piperidyl]-7-fluoro-1H-benzimidazol-2-one

> <PUBCHEM_IUPAC_INCHI>
InChI=1S/C23H27FN4O3S/c24-20-7-4-8-21-22(20)25-23(29)28(21)18-9-13-26(14-10-18)17-11-15-27(16-12-17)32(30,31)19-5-2-1-3-6-19/h1-8,17-18H,9-16H2,(H,25,29)

> <PUBCHEM_IUPAC_INCHIKEY>
SZMMDBAEOIFVNU-UHFFFAOYSA-N

> <PUBCHEM_XLOGP3_AA>
2.8

> <PUBCHEM_EXACT_MASS>
458.17879007

> <PUBCHEM_MOLECULAR_FORMULA>
C23H27FN4O3S

> <PUBCHEM_MOLECULAR_WEIGHT>
458.6

> <PUBCHEM_OPENEYE_CAN_SMILES>
C1CN(CCC1N2C3=C(C(=CC=C3)F)NC2=O)C4CCN(CC4)S(=O)(=O)C5=CC=CC=C5

> <PUBCHEM_OPENEYE_ISO_SMILES>
C1CN(CCC1N2C3=C(C(=CC=C3)F)NC2=O)C4CCN(CC4)S(=O)(=O)C5=CC=CC=C5

> <PUBCHEM_CACTVS_TPSA>
81.3

> <PUBCHEM_MONOISOTOPIC_WEIGHT>
458.17879007

> <PUBCHEM_TOTAL_CHARGE>
0

> <PUBCHEM_HEAVY_ATOM_COUNT>
32

> <PUBCHEM_ATOM_DEF_STEREO_COUNT>
0

> <PUBCHEM_ATOM_UDEF_STEREO_COUNT>
0

> <PUBCHEM_BOND_DEF_STEREO_COUNT>
0

> <PUBCHEM_BOND_UDEF_STEREO_COUNT>
0

> <PUBCHEM_ISOTOPIC_ATOM_COUNT>
0

> <PUBCHEM_COMPONENT_COUNT>
1

> <PUBCHEM_CACTVS_TAUTO_COUNT>
-1

> <PUBCHEM_COORDINATE_TYPE>
1
5
255

> <PUBCHEM_BONDANNOTATIONS>
20  22  8
20  24  8
22  25  8
23  26  8
23  27  8
24  28  8
25  29  8
26  30  8
27  31  8
28  29  8
30  32  8
31  32  8
8  20  8
8  21  8
9  21  8
9  22  8

$$$$
