155517109
  -OEChem-09292322082D

 35 38  0     0  0  0  0  0  0999 V2000
    5.9030   -2.0377    0.0000 S   0  0  0  0  0  0  0  0  0  0  0  0
    4.0908    0.7670    0.0000 N   0  0  0  0  0  0  0  0  0  0  0  0
    3.2247   -0.7330    0.0000 N   0  0  0  0  0  0  0  0  0  0  0  0
    4.0908   -2.2330    0.0000 N   0  0  0  0  0  0  0  0  0  0  0  0
    3.2247    1.2670    0.0000 C   0  0  0  0  0  0  0  0  0  0  0  0
    2.9659    2.2330    0.0000 C   0  0  0  0  0  0  0  0  0  0  0  0
    2.2588    1.0082    0.0000 C   0  0  0  0  0  0  0  0  0  0  0  0
    2.0000    1.9741    0.0000 C   0  0  0  0  0  0  0  0  0  0  0  0
    4.0908   -0.2330    0.0000 C   0  0  0  0  0  0  0  0  0  0  0  0
    4.9568   -0.7330    0.0000 C   0  0  0  0  0  0  0  0  0  0  0  0
    4.9568   -1.7330    0.0000 C   0  0  0  0  0  0  0  0  0  0  0  0
    5.9030   -0.4282    0.0000 C   0  0  0  0  0  0  0  0  0  0  0  0
    6.4866   -1.2330    0.0000 C   0  0  0  0  0  0  0  0  0  0  0  0
    7.4866   -1.2330    0.0000 C   0  0  0  0  0  0  0  0  0  0  0  0
    3.2247   -1.7330    0.0000 C   0  0  0  0  0  0  0  0  0  0  0  0
    7.9866   -2.0990    0.0000 C   0  0  0  0  0  0  0  0  0  0  0  0
    7.9866   -0.3669    0.0000 C   0  0  0  0  0  0  0  0  0  0  0  0
    8.9866   -2.0990    0.0000 C   0  0  0  0  0  0  0  0  0  0  0  0
    8.9866   -0.3669    0.0000 C   0  0  0  0  0  0  0  0  0  0  0  0
    9.4866   -1.2330    0.0000 C   0  0  0  0  0  0  0  0  0  0  0  0
    3.1438    0.6523    0.0000 H   0  0  0  0  0  0  0  0  0  0  0  0
    3.5648    2.3934    0.0000 H   0  0  0  0  0  0  0  0  0  0  0  0
    2.8055    2.8318    0.0000 H   0  0  0  0  0  0  0  0  0  0  0  0
    1.6600    0.8478    0.0000 H   0  0  0  0  0  0  0  0  0  0  0  0
    2.4193    0.4093    0.0000 H   0  0  0  0  0  0  0  0  0  0  0  0
    1.8395    2.5730    0.0000 H   0  0  0  0  0  0  0  0  0  0  0  0
    1.4011    1.8137    0.0000 H   0  0  0  0  0  0  0  0  0  0  0  0
    4.6277    1.0770    0.0000 H   0  0  0  0  0  0  0  0  0  0  0  0
    6.0956    0.1611    0.0000 H   0  0  0  0  0  0  0  0  0  0  0  0
    2.6878   -2.0430    0.0000 H   0  0  0  0  0  0  0  0  0  0  0  0
    7.6766   -2.6359    0.0000 H   0  0  0  0  0  0  0  0  0  0  0  0
    7.6766    0.1700    0.0000 H   0  0  0  0  0  0  0  0  0  0  0  0
    9.2966   -2.6359    0.0000 H   0  0  0  0  0  0  0  0  0  0  0  0
    9.2966    0.1700    0.0000 H   0  0  0  0  0  0  0  0  0  0  0  0
   10.1066   -1.2330    0.0000 H   0  0  0  0  0  0  0  0  0  0  0  0
  1 11  1  0  0  0  0
  1 13  1  0  0  0  0
  2  5  1  0  0  0  0
  2  9  1  0  0  0  0
  2 28  1  0  0  0  0
  3  9  1  0  0  0  0
  3 15  2  0  0  0  0
  4 11  2  0  0  0  0
  4 15  1  0  0  0  0
  5  6  1  0  0  0  0
  5  7  1  0  0  0  0
  5 21  1  0  0  0  0
  6  8  1  0  0  0  0
  6 22  1  0  0  0  0
  6 23  1  0  0  0  0
  7  8  1  0  0  0  0
  7 24  1  0  0  0  0
  7 25  1  0  0  0  0
  8 26  1  0  0  0  0
  8 27  1  0  0  0  0
  9 10  2  0  0  0  0
 10 11  1  0  0  0  0
 10 12  1  0  0  0  0
 12 13  2  0  0  0  0
 12 29  1  0  0  0  0
 13 14  1  0  0  0  0
 14 16  2  0  0  0  0
 14 17  1  0  0  0  0
 15 30  1  0  0  0  0
 16 18  1  0  0  0  0
 16 31  1  0  0  0  0
 17 19  2  0  0  0  0
 17 32  1  0  0  0  0
 18 20  2  0  0  0  0
 18 33  1  0  0  0  0
 19 20  1  0  0  0  0
 19 34  1  0  0  0  0
 20 35  1  0  0  0  0
M  END
> <PUBCHEM_COMPOUND_CID>
155517109

> <PUBCHEM_COMPOUND_CANONICALIZED>
1

> <PUBCHEM_CACTVS_COMPLEXITY>
328

> <PUBCHEM_CACTVS_HBOND_ACCEPTOR>
4

> <PUBCHEM_CACTVS_HBOND_DONOR>
1

> <PUBCHEM_CACTVS_ROTATABLE_BOND>
3

> <PUBCHEM_CACTVS_SUBSKEYS>
AAADccB7AABAAAAAAAAAAAAAAABgASAAAAA8QAAAAAAAAFgB/AAAHAQQAAAADCjBWgQ1sdbIEAikAiJjZACD0KlxCLhJ2LgoRJiIKKLg2dGEJAxokALoyCcQgMAOAAAAAAAAAAAAAAAAAAAAAAAAAAAAAA==

> <PUBCHEM_IUPAC_OPENEYE_NAME>
N-cyclobutyl-6-phenyl-thieno[2,3-d]pyrimidin-4-amine

> <PUBCHEM_IUPAC_CAS_NAME>
N-cyclobutyl-6-phenyl-4-thieno[2,3-d]pyrimidinamine

> <PUBCHEM_IUPAC_NAME_MARKUP>
<I>N</I>-cyclobutyl-6-phenylthieno[2,3-d]pyrimidin-4-amine

> <PUBCHEM_IUPAC_NAME>
N-cyclobutyl-6-phenylthieno[2,3-d]pyrimidin-4-amine

> <PUBCHEM_IUPAC_SYSTEMATIC_NAME>
N-cyclobutyl-6-phenyl-thieno[2,3-d]pyrimidin-4-amine

> <PUBCHEM_IUPAC_TRADITIONAL_NAME>
cyclobutyl-(6-phenylthieno[2,3-d]pyrimidin-4-yl)amine

> <PUBCHEM_IUPAC_INCHI>
InChI=1S/C16H15N3S/c1-2-5-11(6-3-1)14-9-13-15(19-12-7-4-8-12)17-10-18-16(13)20-14/h1-3,5-6,9-10,12H,4,7-8H2,(H,17,18,19)

> <PUBCHEM_IUPAC_INCHIKEY>
KAPAAHHEXHYEPN-UHFFFAOYSA-N

> <PUBCHEM_XLOGP3_AA>
4.4

> <PUBCHEM_EXACT_MASS>
281.09866866

> <PUBCHEM_MOLECULAR_FORMULA>
C16H15N3S

> <PUBCHEM_MOLECULAR_WEIGHT>
281.4

> <PUBCHEM_OPENEYE_CAN_SMILES>
C1CC(C1)NC2=C3C=C(SC3=NC=N2)C4=CC=CC=C4

> <PUBCHEM_OPENEYE_ISO_SMILES>
C1CC(C1)NC2=C3C=C(SC3=NC=N2)C4=CC=CC=C4

> <PUBCHEM_CACTVS_TPSA>
66

> <PUBCHEM_MONOISOTOPIC_WEIGHT>
281.09866866

> <PUBCHEM_TOTAL_CHARGE>
0

> <PUBCHEM_HEAVY_ATOM_COUNT>
20

> <PUBCHEM_ATOM_DEF_STEREO_COUNT>
0

> <PUBCHEM_ATOM_UDEF_STEREO_COUNT>
0

> <PUBCHEM_BOND_DEF_STEREO_COUNT>
0

> <PUBCHEM_BOND_UDEF_STEREO_COUNT>
0

> <PUBCHEM_ISOTOPIC_ATOM_COUNT>
0

> <PUBCHEM_COMPONENT_COUNT>
1

> <PUBCHEM_CACTVS_TAUTO_COUNT>
-1

> <PUBCHEM_COORDINATE_TYPE>
1
5
255

> <PUBCHEM_BONDANNOTATIONS>
1  11  8
1  13  8
10  11  8
10  12  8
12  13  8
14  16  8
14  17  8
16  18  8
17  19  8
18  20  8
19  20  8
3  15  8
3  9  8
4  11  8
4  15  8
9  10  8

$$$$
