11613115
  -OEChem-09292322272D

 58 62  0     0  0  0  0  0  0999 V2000
    7.9431    3.5872    0.0000 O   0  0  0  0  0  0  0  0  0  0  0  0
    7.9431    5.6566    0.0000 O   0  0  0  0  0  0  0  0  0  0  0  0
    6.1831    0.6219    0.0000 N   0  0  0  0  0  0  0  0  0  0  0  0
    6.1831    2.6219    0.0000 N   0  0  0  0  0  0  0  0  0  0  0  0
    4.9511   -4.9079    0.0000 N   0  0  0  0  0  0  0  0  0  0  0  0
    7.0492    1.1219    0.0000 C   0  0  0  0  0  0  0  0  0  0  0  0
    5.3171    1.1219    0.0000 C   0  0  0  0  0  0  0  0  0  0  0  0
    7.0492    2.1219    0.0000 C   0  0  0  0  0  0  0  0  0  0  0  0
    5.3171    2.1219    0.0000 C   0  0  0  0  0  0  0  0  0  0  0  0
    6.1831   -0.3781    0.0000 C   0  0  0  0  0  0  0  0  0  0  0  0
    5.3171   -0.8781    0.0000 C   0  0  0  0  0  0  0  0  0  0  0  0
    5.3171   -1.8781    0.0000 C   0  0  0  0  0  0  0  0  0  0  0  0
    6.1831    3.6219    0.0000 C   0  0  0  0  0  0  0  0  0  0  0  0
    4.4511   -2.3781    0.0000 C   0  0  0  0  0  0  0  0  0  0  0  0
    7.0492    4.1219    0.0000 C   0  0  0  0  0  0  0  0  0  0  0  0
    4.4511   -3.3781    0.0000 C   0  0  0  0  0  0  0  0  0  0  0  0
    5.3171    4.1219    0.0000 C   0  0  0  0  0  0  0  0  0  0  0  0
    7.0492    5.1219    0.0000 C   0  0  0  0  0  0  0  0  0  0  0  0
    3.6464   -3.9617    0.0000 C   0  0  0  0  0  0  0  0  0  0  0  0
    5.2558   -3.9617    0.0000 C   0  0  0  0  0  0  0  0  0  0  0  0
    5.3171    5.1219    0.0000 C   0  0  0  0  0  0  0  0  0  0  0  0
    3.9570   -4.9122    0.0000 C   0  0  0  0  0  0  0  0  0  0  0  0
    6.1831    5.6219    0.0000 C   0  0  0  0  0  0  0  0  0  0  0  0
    8.8492    4.1011    0.0000 C   0  0  0  0  0  0  0  0  0  0  0  0
    8.8492    5.1427    0.0000 C   0  0  0  0  0  0  0  0  0  0  0  0
    2.6678   -3.7555    0.0000 C   0  0  0  0  0  0  0  0  0  0  0  0
    3.2892   -5.6566    0.0000 C   0  0  0  0  0  0  0  0  0  0  0  0
    2.0000   -4.4998    0.0000 C   0  0  0  0  0  0  0  0  0  0  0  0
    2.3107   -5.4503    0.0000 C   0  0  0  0  0  0  0  0  0  0  0  0
    7.2612    0.5393    0.0000 H   0  0  0  0  0  0  0  0  0  0  0  0
    7.6597    1.2296    0.0000 H   0  0  0  0  0  0  0  0  0  0  0  0
    4.7065    1.2296    0.0000 H   0  0  0  0  0  0  0  0  0  0  0  0
    5.1050    0.5393    0.0000 H   0  0  0  0  0  0  0  0  0  0  0  0
    7.6597    2.0142    0.0000 H   0  0  0  0  0  0  0  0  0  0  0  0
    7.2612    2.7045    0.0000 H   0  0  0  0  0  0  0  0  0  0  0  0
    5.1050    2.7045    0.0000 H   0  0  0  0  0  0  0  0  0  0  0  0
    4.7065    2.0142    0.0000 H   0  0  0  0  0  0  0  0  0  0  0  0
    6.3952   -0.9607    0.0000 H   0  0  0  0  0  0  0  0  0  0  0  0
    6.7937   -0.2705    0.0000 H   0  0  0  0  0  0  0  0  0  0  0  0
    5.1050   -0.2955    0.0000 H   0  0  0  0  0  0  0  0  0  0  0  0
    4.7065   -0.9858    0.0000 H   0  0  0  0  0  0  0  0  0  0  0  0
    5.5292   -2.4607    0.0000 H   0  0  0  0  0  0  0  0  0  0  0  0
    5.9277   -1.7704    0.0000 H   0  0  0  0  0  0  0  0  0  0  0  0
    4.2390   -1.7955    0.0000 H   0  0  0  0  0  0  0  0  0  0  0  0
    3.8405   -2.4858    0.0000 H   0  0  0  0  0  0  0  0  0  0  0  0
    4.7802    3.8119    0.0000 H   0  0  0  0  0  0  0  0  0  0  0  0
    5.8451   -3.7691    0.0000 H   0  0  0  0  0  0  0  0  0  0  0  0
    4.7802    5.4319    0.0000 H   0  0  0  0  0  0  0  0  0  0  0  0
    6.1831    6.2419    0.0000 H   0  0  0  0  0  0  0  0  0  0  0  0
    9.0582    3.5174    0.0000 H   0  0  0  0  0  0  0  0  0  0  0  0
    9.4600    4.2072    0.0000 H   0  0  0  0  0  0  0  0  0  0  0  0
    5.3172   -5.4083    0.0000 H   0  0  0  0  0  0  0  0  0  0  0  0
    9.4600    5.0366    0.0000 H   0  0  0  0  0  0  0  0  0  0  0  0
    9.0582    5.7264    0.0000 H   0  0  0  0  0  0  0  0  0  0  0  0
    2.4752   -3.1662    0.0000 H   0  0  0  0  0  0  0  0  0  0  0  0
    3.4818   -6.2459    0.0000 H   0  0  0  0  0  0  0  0  0  0  0  0
    1.3933   -4.3720    0.0000 H   0  0  0  0  0  0  0  0  0  0  0  0
    1.8966   -5.9118    0.0000 H   0  0  0  0  0  0  0  0  0  0  0  0
  1 15  1  0  0  0  0
  1 24  1  0  0  0  0
  2 18  1  0  0  0  0
  2 25  1  0  0  0  0
  3  6  1  0  0  0  0
  3  7  1  0  0  0  0
  3 10  1  0  0  0  0
  4  8  1  0  0  0  0
  4  9  1  0  0  0  0
  4 13  1  0  0  0  0
  5 20  1  0  0  0  0
  5 22  1  0  0  0  0
  5 52  1  0  0  0  0
  6  8  1  0  0  0  0
  6 30  1  0  0  0  0
  6 31  1  0  0  0  0
  7  9  1  0  0  0  0
  7 32  1  0  0  0  0
  7 33  1  0  0  0  0
  8 34  1  0  0  0  0
  8 35  1  0  0  0  0
  9 36  1  0  0  0  0
  9 37  1  0  0  0  0
 10 11  1  0  0  0  0
 10 38  1  0  0  0  0
 10 39  1  0  0  0  0
 11 12  1  0  0  0  0
 11 40  1  0  0  0  0
 11 41  1  0  0  0  0
 12 14  1  0  0  0  0
 12 42  1  0  0  0  0
 12 43  1  0  0  0  0
 13 15  2  0  0  0  0
 13 17  1  0  0  0  0
 14 16  1  0  0  0  0
 14 44  1  0  0  0  0
 14 45  1  0  0  0  0
 15 18  1  0  0  0  0
 16 19  1  0  0  0  0
 16 20  2  0  0  0  0
 17 21  2  0  0  0  0
 17 46  1  0  0  0  0
 18 23  2  0  0  0  0
 19 22  1  0  0  0  0
 19 26  2  0  0  0  0
 20 47  1  0  0  0  0
 21 23  1  0  0  0  0
 21 48  1  0  0  0  0
 22 27  2  0  0  0  0
 23 49  1  0  0  0  0
 24 25  1  0  0  0  0
 24 50  1  0  0  0  0
 24 51  1  0  0  0  0
 25 53  1  0  0  0  0
 25 54  1  0  0  0  0
 26 28  1  0  0  0  0
 26 55  1  0  0  0  0
 27 29  1  0  0  0  0
 27 56  1  0  0  0  0
 28 29  2  0  0  0  0
 28 57  1  0  0  0  0
 29 58  1  0  0  0  0
M  END
> <PUBCHEM_COMPOUND_CID>
11613115

> <PUBCHEM_COMPOUND_CANONICALIZED>
1

> <PUBCHEM_CACTVS_COMPLEXITY>
510

> <PUBCHEM_CACTVS_HBOND_ACCEPTOR>
4

> <PUBCHEM_CACTVS_HBOND_DONOR>
1

> <PUBCHEM_CACTVS_ROTATABLE_BOND>
6

> <PUBCHEM_CACTVS_SUBSKEYS>
AAADceB7MAAAAAAAAAAAAAAAAAAAAWAAAAA8aIEAAAAAAFiR9AAAHgAQAAAADAzhngY8xvPJlACgAzRnRACCiCAxIiAI2aA/7JgPZuLEsZuXOCrm0Bna6AeQ0MMOgAAAAgACUAAAAAAEAASgAAAAAAAAAA==

> <PUBCHEM_IUPAC_OPENEYE_NAME>
3-[4-[4-(2,3-dihydro-1,4-benzodioxin-5-yl)piperazin-1-yl]butyl]-1H-indole

> <PUBCHEM_IUPAC_CAS_NAME>
3-[4-[4-(2,3-dihydro-1,4-benzodioxin-5-yl)-1-piperazinyl]butyl]-1H-indole

> <PUBCHEM_IUPAC_NAME_MARKUP>
3-[4-[4-(2,3-dihydro-1,4-benzodioxin-5-yl)piperazin-1-yl]butyl]-1<I>H</I>-indole

> <PUBCHEM_IUPAC_NAME>
3-[4-[4-(2,3-dihydro-1,4-benzodioxin-5-yl)piperazin-1-yl]butyl]-1H-indole

> <PUBCHEM_IUPAC_SYSTEMATIC_NAME>
3-[4-[4-(2,3-dihydro-1,4-benzodioxin-5-yl)piperazin-1-yl]butyl]-1H-indole

> <PUBCHEM_IUPAC_TRADITIONAL_NAME>
3-[4-[4-(2,3-dihydro-1,4-benzodioxin-5-yl)piperazino]butyl]-1H-indole

> <PUBCHEM_IUPAC_INCHI>
InChI=1S/C24H29N3O2/c1-2-8-21-20(7-1)19(18-25-21)6-3-4-11-26-12-14-27(15-13-26)22-9-5-10-23-24(22)29-17-16-28-23/h1-2,5,7-10,18,25H,3-4,6,11-17H2

> <PUBCHEM_IUPAC_INCHIKEY>
DDLKKLRIFBJGAF-UHFFFAOYSA-N

> <PUBCHEM_XLOGP3_AA>
4.4

> <PUBCHEM_EXACT_MASS>
391.22597718

> <PUBCHEM_MOLECULAR_FORMULA>
C24H29N3O2

> <PUBCHEM_MOLECULAR_WEIGHT>
391.5

> <PUBCHEM_OPENEYE_CAN_SMILES>
C1CN(CCN1CCCCC2=CNC3=CC=CC=C32)C4=C5C(=CC=C4)OCCO5

> <PUBCHEM_OPENEYE_ISO_SMILES>
C1CN(CCN1CCCCC2=CNC3=CC=CC=C32)C4=C5C(=CC=C4)OCCO5

> <PUBCHEM_CACTVS_TPSA>
40.7

> <PUBCHEM_MONOISOTOPIC_WEIGHT>
391.22597718

> <PUBCHEM_TOTAL_CHARGE>
0

> <PUBCHEM_HEAVY_ATOM_COUNT>
29

> <PUBCHEM_ATOM_DEF_STEREO_COUNT>
0

> <PUBCHEM_ATOM_UDEF_STEREO_COUNT>
0

> <PUBCHEM_BOND_DEF_STEREO_COUNT>
0

> <PUBCHEM_BOND_UDEF_STEREO_COUNT>
0

> <PUBCHEM_ISOTOPIC_ATOM_COUNT>
0

> <PUBCHEM_COMPONENT_COUNT>
1

> <PUBCHEM_CACTVS_TAUTO_COUNT>
-1

> <PUBCHEM_COORDINATE_TYPE>
1
5
255

> <PUBCHEM_BONDANNOTATIONS>
13  15  8
13  17  8
15  18  8
16  19  8
16  20  8
17  21  8
18  23  8
19  22  8
19  26  8
21  23  8
22  27  8
26  28  8
27  29  8
28  29  8
5  20  8
5  22  8

$$$$
