44578885
  -OEChem-09292322502D

 58 61  0     1  0  0  0  0  0999 V2000
    5.9641   -0.8170    0.0000 N   0  0  0  0  0  0  0  0  0  0  0  0
    5.9641    1.1830    0.0000 N   0  0  0  0  0  0  0  0  0  0  0  0
    5.0981   -2.3170    0.0000 C   0  0  2  0  0  0  0  0  0  0  0  0
    4.5981   -3.1830    0.0000 C   0  0  1  0  0  0  0  0  0  0  0  0
    4.0981   -2.3170    0.0000 C   0  0  0  0  0  0  0  0  0  0  0  0
    5.9641   -1.8170    0.0000 C   0  0  2  0  0  0  0  0  0  0  0  0
    5.4641   -3.6830    0.0000 C   0  0  0  0  0  0  0  0  0  0  0  0
    3.7320   -3.6830    0.0000 C   0  0  0  0  0  0  0  0  0  0  0  0
    6.8301   -2.3170    0.0000 C   0  0  0  0  0  0  0  0  0  0  0  0
    5.0981   -0.3170    0.0000 C   0  0  0  0  0  0  0  0  0  0  0  0
    6.8301   -0.3170    0.0000 C   0  0  0  0  0  0  0  0  0  0  0  0
    3.7320   -4.6830    0.0000 C   0  0  0  0  0  0  0  0  0  0  0  0
    2.8660   -3.1830    0.0000 C   0  0  0  0  0  0  0  0  0  0  0  0
    5.0981    0.6830    0.0000 C   0  0  0  0  0  0  0  0  0  0  0  0
    6.8301    0.6830    0.0000 C   0  0  0  0  0  0  0  0  0  0  0  0
    2.8660   -5.1830    0.0000 C   0  0  0  0  0  0  0  0  0  0  0  0
    2.0000   -3.6830    0.0000 C   0  0  0  0  0  0  0  0  0  0  0  0
    2.0000   -4.6830    0.0000 C   0  0  0  0  0  0  0  0  0  0  0  0
    5.9641    2.1830    0.0000 C   0  0  0  0  0  0  0  0  0  0  0  0
    6.8301    2.6830    0.0000 C   0  0  0  0  0  0  0  0  0  0  0  0
    5.0981    2.6830    0.0000 C   0  0  0  0  0  0  0  0  0  0  0  0
    6.8301    3.6830    0.0000 C   0  0  0  0  0  0  0  0  0  0  0  0
    5.0981    3.6830    0.0000 C   0  0  0  0  0  0  0  0  0  0  0  0
    7.6962    2.1830    0.0000 C   0  0  0  0  0  0  0  0  0  0  0  0
    5.9641    4.1830    0.0000 C   0  0  0  0  0  0  0  0  0  0  0  0
    5.9641    5.1830    0.0000 C   0  0  0  0  0  0  0  0  0  0  0  0
    4.8781   -1.4959    0.0000 H   0  0  0  0  0  0  0  0  0  0  0  0
    3.9904   -1.7064    0.0000 H   0  0  0  0  0  0  0  0  0  0  0  0
    3.5155   -2.5290    0.0000 H   0  0  0  0  0  0  0  0  0  0  0  0
    6.5010   -1.5070    0.0000 H   0  0  0  0  0  0  0  0  0  0  0  0
    5.1541   -4.2200    0.0000 H   0  0  0  0  0  0  0  0  0  0  0  0
    6.0010   -3.9930    0.0000 H   0  0  0  0  0  0  0  0  0  0  0  0
    5.7741   -3.1461    0.0000 H   0  0  0  0  0  0  0  0  0  0  0  0
    6.5201   -2.8539    0.0000 H   0  0  0  0  0  0  0  0  0  0  0  0
    7.3671   -2.6270    0.0000 H   0  0  0  0  0  0  0  0  0  0  0  0
    7.1401   -1.7800    0.0000 H   0  0  0  0  0  0  0  0  0  0  0  0
    4.4875   -0.2093    0.0000 H   0  0  0  0  0  0  0  0  0  0  0  0
    4.8860   -0.8996    0.0000 H   0  0  0  0  0  0  0  0  0  0  0  0
    7.0422   -0.8996    0.0000 H   0  0  0  0  0  0  0  0  0  0  0  0
    7.4407   -0.2093    0.0000 H   0  0  0  0  0  0  0  0  0  0  0  0
    4.2690   -4.9930    0.0000 H   0  0  0  0  0  0  0  0  0  0  0  0
    2.8660   -2.5630    0.0000 H   0  0  0  0  0  0  0  0  0  0  0  0
    4.8860    1.2656    0.0000 H   0  0  0  0  0  0  0  0  0  0  0  0
    4.4875    0.5754    0.0000 H   0  0  0  0  0  0  0  0  0  0  0  0
    7.4407    0.5754    0.0000 H   0  0  0  0  0  0  0  0  0  0  0  0
    7.0422    1.2656    0.0000 H   0  0  0  0  0  0  0  0  0  0  0  0
    2.8660   -5.8030    0.0000 H   0  0  0  0  0  0  0  0  0  0  0  0
    1.4631   -3.3730    0.0000 H   0  0  0  0  0  0  0  0  0  0  0  0
    1.4631   -4.9930    0.0000 H   0  0  0  0  0  0  0  0  0  0  0  0
    4.5611    2.3730    0.0000 H   0  0  0  0  0  0  0  0  0  0  0  0
    7.3671    3.9930    0.0000 H   0  0  0  0  0  0  0  0  0  0  0  0
    4.5611    3.9930    0.0000 H   0  0  0  0  0  0  0  0  0  0  0  0
    7.3862    1.6461    0.0000 H   0  0  0  0  0  0  0  0  0  0  0  0
    8.2331    1.8730    0.0000 H   0  0  0  0  0  0  0  0  0  0  0  0
    8.0062    2.7200    0.0000 H   0  0  0  0  0  0  0  0  0  0  0  0
    6.5841    5.1830    0.0000 H   0  0  0  0  0  0  0  0  0  0  0  0
    5.9641    5.8030    0.0000 H   0  0  0  0  0  0  0  0  0  0  0  0
    5.3441    5.1830    0.0000 H   0  0  0  0  0  0  0  0  0  0  0  0
  1  6  1  0  0  0  0
  1 10  1  0  0  0  0
  1 11  1  0  0  0  0
  2 14  1  0  0  0  0
  2 15  1  0  0  0  0
  2 19  1  0  0  0  0
  3  4  1  0  0  0  0
  3  5  1  0  0  0  0
  3  6  1  0  0  0  0
  3 27  1  1  0  0  0
  4  5  1  0  0  0  0
  4  7  1  6  0  0  0
  4  8  1  0  0  0  0
  5 28  1  0  0  0  0
  5 29  1  0  0  0  0
  6  9  1  1  0  0  0
  6 30  1  0  0  0  0
  7 31  1  0  0  0  0
  7 32  1  0  0  0  0
  7 33  1  0  0  0  0
  8 12  2  0  0  0  0
  8 13  1  0  0  0  0
  9 34  1  0  0  0  0
  9 35  1  0  0  0  0
  9 36  1  0  0  0  0
 10 14  1  0  0  0  0
 10 37  1  0  0  0  0
 10 38  1  0  0  0  0
 11 15  1  0  0  0  0
 11 39  1  0  0  0  0
 11 40  1  0  0  0  0
 12 16  1  0  0  0  0
 12 41  1  0  0  0  0
 13 17  2  0  0  0  0
 13 42  1  0  0  0  0
 14 43  1  0  0  0  0
 14 44  1  0  0  0  0
 15 45  1  0  0  0  0
 15 46  1  0  0  0  0
 16 18  2  0  0  0  0
 16 47  1  0  0  0  0
 17 18  1  0  0  0  0
 17 48  1  0  0  0  0
 18 49  1  0  0  0  0
 19 20  2  0  0  0  0
 19 21  1  0  0  0  0
 20 22  1  0  0  0  0
 20 24  1  0  0  0  0
 21 23  2  0  0  0  0
 21 50  1  0  0  0  0
 22 25  2  0  0  0  0
 22 51  1  0  0  0  0
 23 25  1  0  0  0  0
 23 52  1  0  0  0  0
 24 53  1  0  0  0  0
 24 54  1  0  0  0  0
 24 55  1  0  0  0  0
 25 26  1  0  0  0  0
 26 56  1  0  0  0  0
 26 57  1  0  0  0  0
 26 58  1  0  0  0  0
M  END
> <PUBCHEM_COMPOUND_CID>
44578885

> <PUBCHEM_COMPOUND_CANONICALIZED>
1

> <PUBCHEM_CACTVS_COMPLEXITY>
463

> <PUBCHEM_CACTVS_HBOND_ACCEPTOR>
2

> <PUBCHEM_CACTVS_HBOND_DONOR>
0

> <PUBCHEM_CACTVS_ROTATABLE_BOND>
4

> <PUBCHEM_CACTVS_SUBSKEYS>
AAADcfB7AAAAAAAAAAAAAAAAGAAAAAAAAAA8YIAAAAAAAAABQAAAHAAAAAAADyjBGAQywIMAAACAAiRCQACCAAAhAgAIiAAIZIgIYCLAkZGUIAhggADIyAcQgMAPiAACAAACAAAQAAQAAAQAAAAAAAAAAA==

> <PUBCHEM_IUPAC_OPENEYE_NAME>
1-(2,4-dimethylphenyl)-4-[(1S)-1-[(1S,2S)-2-methyl-2-phenyl-cyclopropyl]ethyl]piperazine

> <PUBCHEM_IUPAC_CAS_NAME>
1-(2,4-dimethylphenyl)-4-[(1S)-1-[(1S,2S)-2-methyl-2-phenylcyclopropyl]ethyl]piperazine

> <PUBCHEM_IUPAC_NAME_MARKUP>
1-(2,4-dimethylphenyl)-4-[(1<I>S</I>)-1-[(1<I>S</I>,2<I>S</I>)-2-methyl-2-phenylcyclopropyl]ethyl]piperazine

> <PUBCHEM_IUPAC_NAME>
1-(2,4-dimethylphenyl)-4-[(1S)-1-[(1S,2S)-2-methyl-2-phenylcyclopropyl]ethyl]piperazine

> <PUBCHEM_IUPAC_SYSTEMATIC_NAME>
1-(2,4-dimethylphenyl)-4-[(1S)-1-[(1S,2S)-2-methyl-2-phenyl-cyclopropyl]ethyl]piperazine

> <PUBCHEM_IUPAC_TRADITIONAL_NAME>
1-(2,4-dimethylphenyl)-4-[(1S)-1-[(1S,2S)-2-methyl-2-phenyl-cyclopropyl]ethyl]piperazine

> <PUBCHEM_IUPAC_INCHI>
InChI=1S/C24H32N2/c1-18-10-11-23(19(2)16-18)26-14-12-25(13-15-26)20(3)22-17-24(22,4)21-8-6-5-7-9-21/h5-11,16,20,22H,12-15,17H2,1-4H3/t20-,22+,24+/m0/s1

> <PUBCHEM_IUPAC_INCHIKEY>
JUUPBTSCNSERAG-BGWNEDDSSA-N

> <PUBCHEM_XLOGP3_AA>
5.7

> <PUBCHEM_EXACT_MASS>
348.256549029

> <PUBCHEM_MOLECULAR_FORMULA>
C24H32N2

> <PUBCHEM_MOLECULAR_WEIGHT>
348.5

> <PUBCHEM_OPENEYE_CAN_SMILES>
CC1=CC(=C(C=C1)N2CCN(CC2)C(C)C3CC3(C)C4=CC=CC=C4)C

> <PUBCHEM_OPENEYE_ISO_SMILES>
CC1=CC(=C(C=C1)N2CCN(CC2)[C@@H](C)[C@H]3C[C@]3(C)C4=CC=CC=C4)C

> <PUBCHEM_CACTVS_TPSA>
6.5

> <PUBCHEM_MONOISOTOPIC_WEIGHT>
348.256549029

> <PUBCHEM_TOTAL_CHARGE>
0

> <PUBCHEM_HEAVY_ATOM_COUNT>
26

> <PUBCHEM_ATOM_DEF_STEREO_COUNT>
3

> <PUBCHEM_ATOM_UDEF_STEREO_COUNT>
0

> <PUBCHEM_BOND_DEF_STEREO_COUNT>
0

> <PUBCHEM_BOND_UDEF_STEREO_COUNT>
0

> <PUBCHEM_ISOTOPIC_ATOM_COUNT>
0

> <PUBCHEM_COMPONENT_COUNT>
1

> <PUBCHEM_CACTVS_TAUTO_COUNT>
-1

> <PUBCHEM_COORDINATE_TYPE>
1
5
255

> <PUBCHEM_BONDANNOTATIONS>
12  16  8
13  17  8
16  18  8
17  18  8
19  20  8
19  21  8
20  22  8
21  23  8
22  25  8
23  25  8
3  27  5
4  7  6
6  9  5
8  12  8
8  13  8

$$$$
