11601627
  -OEChem-09292322482D

 41 43  0     1  0  0  0  0  0999 V2000
    2.1290   -2.1296    0.0000 S   0  0  0  0  0  0  0  0  0  0  0  0
    3.7320    1.0374    0.0000 N   0  0  3  0  0  0  0  0  0  0  0  0
    4.5981    1.5374    0.0000 C   0  0  0  0  0  0  0  0  0  0  0  0
    3.7320    0.0374    0.0000 C   0  0  0  0  0  0  0  0  0  0  0  0
    5.4641    1.0374    0.0000 C   0  0  0  0  0  0  0  0  0  0  0  0
    2.8660   -0.4626    0.0000 C   0  0  0  0  0  0  0  0  0  0  0  0
    5.4641    0.0374    0.0000 C   0  0  0  0  0  0  0  0  0  0  0  0
    4.5981   -1.4626    0.0000 C   0  0  0  0  0  0  0  0  0  0  0  0
    4.5981   -0.4626    0.0000 C   0  0  0  0  0  0  0  0  0  0  0  0
    2.8660   -1.4626    0.0000 C   0  0  0  0  0  0  0  0  0  0  0  0
    3.7320   -1.9626    0.0000 C   0  0  0  0  0  0  0  0  0  0  0  0
    2.8660    1.5374    0.0000 C   0  0  0  0  0  0  0  0  0  0  0  0
    6.8754   -0.5397    0.0000 C   0  0  0  0  0  0  0  0  0  0  0  0
    3.5228   -2.9344    0.0000 C   0  0  0  0  0  0  0  0  0  0  0  0
    4.3922   -1.9734    0.0000 C   0  0  0  0  0  0  0  0  0  0  0  0
    2.5341   -3.0374    0.0000 C   0  0  0  0  0  0  0  0  0  0  0  0
    6.9786   -2.0610    0.0000 C   0  0  0  0  0  0  0  0  0  0  0  0
    5.6581   -2.8233    0.0000 C   0  0  0  0  0  0  0  0  0  0  0  0
    2.8660    2.5374    0.0000 C   0  0  0  0  0  0  0  0  0  0  0  0
    2.0000    3.0374    0.0000 C   0  0  0  0  0  0  0  0  0  0  0  0
    4.9966    2.0124    0.0000 H   0  0  0  0  0  0  0  0  0  0  0  0
    4.1996    2.0124    0.0000 H   0  0  0  0  0  0  0  0  0  0  0  0
    3.9441   -0.5452    0.0000 H   0  0  0  0  0  0  0  0  0  0  0  0
    4.3426    0.1451    0.0000 H   0  0  0  0  0  0  0  0  0  0  0  0
    6.0747    0.9298    0.0000 H   0  0  0  0  0  0  0  0  0  0  0  0
    5.6762    1.6200    0.0000 H   0  0  0  0  0  0  0  0  0  0  0  0
    2.6540    0.1200    0.0000 H   0  0  0  0  0  0  0  0  0  0  0  0
    2.2554   -0.5702    0.0000 H   0  0  0  0  0  0  0  0  0  0  0  0
    4.8101   -2.0452    0.0000 H   0  0  0  0  0  0  0  0  0  0  0  0
    5.2087   -1.3549    0.0000 H   0  0  0  0  0  0  0  0  0  0  0  0
    2.2554    1.6451    0.0000 H   0  0  0  0  0  0  0  0  0  0  0  0
    2.6540    0.9548    0.0000 H   0  0  0  0  0  0  0  0  0  0  0  0
    7.3782   -0.1768    0.0000 H   0  0  0  0  0  0  0  0  0  0  0  0
    3.9369   -3.3958    0.0000 H   0  0  0  0  0  0  0  0  0  0  0  0
    3.8266   -2.2273    0.0000 H   0  0  0  0  0  0  0  0  0  0  0  0
    2.2241   -3.5744    0.0000 H   0  0  0  0  0  0  0  0  0  0  0  0
    7.5257   -2.3526    0.0000 H   0  0  0  0  0  0  0  0  0  0  0  0
    5.6371   -3.4430    0.0000 H   0  0  0  0  0  0  0  0  0  0  0  0
    3.4030    2.8474    0.0000 H   0  0  0  0  0  0  0  0  0  0  0  0
    2.0000    3.6574    0.0000 H   0  0  0  0  0  0  0  0  0  0  0  0
    1.4631    2.7274    0.0000 H   0  0  0  0  0  0  0  0  0  0  0  0
  1 10  1  0  0  0  0
  1 16  1  0  0  0  0
  2  3  1  0  0  0  0
  2  4  1  0  0  0  0
  2 12  1  0  0  0  0
  3  5  1  0  0  0  0
  3 21  1  0  0  0  0
  3 22  1  0  0  0  0
  4  6  1  0  0  0  0
  4 23  1  0  0  0  0
  4 24  1  0  0  0  0
  5  7  1  0  0  0  0
  5 25  1  0  0  0  0
  5 26  1  0  0  0  0
  6 10  1  0  0  0  0
  6 27  1  0  0  0  0
  6 28  1  0  0  0  0
  7  9  1  0  0  0  0
  7 13  2  0  0  0  0
  8  9  1  0  0  0  0
  8 11  1  0  0  0  0
  8 29  1  0  0  0  0
  8 30  1  0  0  0  0
  9 15  2  0  0  0  0
 10 11  2  0  0  0  0
 11 14  1  0  0  0  0
 12 19  1  0  0  0  0
 12 31  1  0  0  0  0
 12 32  1  0  0  0  0
 13 17  1  0  0  0  0
 13 33  1  0  0  0  0
 14 16  2  0  0  0  0
 14 34  1  0  0  0  0
 15 18  1  0  0  0  0
 15 35  1  0  0  0  0
 16 36  1  0  0  0  0
 17 18  2  0  0  0  0
 17 37  1  0  0  0  0
 18 38  1  0  0  0  0
 19 20  2  0  0  0  0
 19 39  1  0  0  0  0
 20 40  1  0  0  0  0
 20 41  1  0  0  0  0
M  END
> <PUBCHEM_COMPOUND_CID>
11601627

> <PUBCHEM_COMPOUND_CANONICALIZED>
1

> <PUBCHEM_CACTVS_COMPLEXITY>
317

> <PUBCHEM_CACTVS_HBOND_ACCEPTOR>
2

> <PUBCHEM_CACTVS_HBOND_DONOR>
0

> <PUBCHEM_CACTVS_ROTATABLE_BOND>
2

> <PUBCHEM_CACTVS_SUBSKEYS>
AAADceB6AABAAAAAAAAAAAAAAAAAASAAAAAwAAAAAAAAAACxwAAAHAQAAAAADADFWASwAYMAAAiEAiBCAACDAIAgCBBIiBgIAIgIICKgkRGEIAAggACoiAcQgMAOgAAAAAAQAAAAAAAAACAAAAAAAAAAAA==

> <PUBCHEM_IUPAC_OPENEYE_NAME>
10-allyl-6-thia-10-azatricyclo[11.4.0.03,7]heptadeca-1(17),3(7),4,13,15-pentaene

> <PUBCHEM_IUPAC_CAS_NAME>
10-prop-2-enyl-6-thia-10-azatricyclo[11.4.0.03,7]heptadeca-1(17),3(7),4,13,15-pentaene

> <PUBCHEM_IUPAC_NAME_MARKUP>
10-prop-2-enyl-6-thia-10-azatricyclo[11.4.0.0<SUP>3,7</SUP>]heptadeca-1(17),3(7),4,13,15-pentaene

> <PUBCHEM_IUPAC_NAME>
10-prop-2-enyl-6-thia-10-azatricyclo[11.4.0.03,7]heptadeca-1(17),3(7),4,13,15-pentaene

> <PUBCHEM_IUPAC_SYSTEMATIC_NAME>
10-prop-2-enyl-6-thia-10-azatricyclo[11.4.0.03,7]heptadeca-1(17),3(7),4,13,15-pentaene

> <PUBCHEM_IUPAC_TRADITIONAL_NAME>
10-allyl-6-thia-10-azatricyclo[11.4.0.03,7]heptadeca-1(17),3(7),4,13,15-pentaene

> <PUBCHEM_IUPAC_INCHI>
InChI=1S/C18H21NS/c1-2-10-19-11-7-15-5-3-4-6-16(15)14-17-9-13-20-18(17)8-12-19/h2-6,9,13H,1,7-8,10-12,14H2

> <PUBCHEM_IUPAC_INCHIKEY>
ORWJOWKBZHUXMP-UHFFFAOYSA-N

> <PUBCHEM_XLOGP3_AA>
4.5

> <PUBCHEM_EXACT_MASS>
283.13947085

> <PUBCHEM_MOLECULAR_FORMULA>
C18H21NS

> <PUBCHEM_MOLECULAR_WEIGHT>
283.4

> <PUBCHEM_OPENEYE_CAN_SMILES>
C=CCN1CCC2=CC=CC=C2CC3=C(CC1)SC=C3

> <PUBCHEM_OPENEYE_ISO_SMILES>
C=CCN1CCC2=CC=CC=C2CC3=C(CC1)SC=C3

> <PUBCHEM_CACTVS_TPSA>
31.5

> <PUBCHEM_MONOISOTOPIC_WEIGHT>
283.13947085

> <PUBCHEM_TOTAL_CHARGE>
0

> <PUBCHEM_HEAVY_ATOM_COUNT>
20

> <PUBCHEM_ATOM_DEF_STEREO_COUNT>
0

> <PUBCHEM_ATOM_UDEF_STEREO_COUNT>
0

> <PUBCHEM_BOND_DEF_STEREO_COUNT>
0

> <PUBCHEM_BOND_UDEF_STEREO_COUNT>
0

> <PUBCHEM_ISOTOPIC_ATOM_COUNT>
0

> <PUBCHEM_COMPONENT_COUNT>
1

> <PUBCHEM_CACTVS_TAUTO_COUNT>
-1

> <PUBCHEM_COORDINATE_TYPE>
1
5
255

> <PUBCHEM_BONDANNOTATIONS>
1  10  8
1  16  8
10  11  8
11  14  8
13  17  8
14  16  8
15  18  8
17  18  8
7  13  8
7  9  8
9  15  8

$$$$
