90656838
  -OEChem-09292322352D

286297  0     1  0  0  0  0  0999 V2000
   16.8253   -8.4020    0.0000 S   0  0  0  0  0  0  0  0  0  0  0  0
    9.5417   10.3695    0.0000 S   0  0  0  0  0  0  0  0  0  0  0  0
   11.6728   -7.8437    0.0000 O   0  0  0  0  0  0  0  0  0  0  0  0
   12.7481   -4.3376    0.0000 O   0  0  0  0  0  0  0  0  0  0  0  0
   15.3268   -7.5333    0.0000 O   0  0  0  0  0  0  0  0  0  0  0  0
   10.2526   -1.7352    0.0000 O   0  0  0  0  0  0  0  0  0  0  0  0
   12.8223  -10.1271    0.0000 O   0  0  0  0  0  0  0  0  0  0  0  0
    9.8163  -13.5860    0.0000 O   0  0  0  0  0  0  0  0  0  0  0  0
    9.6173  -16.5242    0.0000 O   0  0  0  0  0  0  0  0  0  0  0  0
   12.3208  -10.9922    0.0000 O   0  0  0  0  0  0  0  0  0  0  0  0
   11.3208  -10.9905    0.0000 O   0  0  0  0  0  0  0  0  0  0  0  0
    7.2566  -12.5965    0.0000 O   0  0  0  0  0  0  0  0  0  0  0  0
    7.9244  -13.3408    0.0000 O   0  0  0  0  0  0  0  0  0  0  0  0
    9.7541   -0.8684    0.0000 O   0  0  0  0  0  0  0  0  0  0  0  0
   10.1792   16.3355    0.0000 O   0  0  0  0  0  0  0  0  0  0  0  0
    6.8404   -9.6811    0.0000 O   0  0  0  0  0  0  0  0  0  0  0  0
    7.5421  -11.2646    0.0000 O   0  0  0  0  0  0  0  0  0  0  0  0
    8.2586    1.7323    0.0000 O   0  0  0  0  0  0  0  0  0  0  0  0
    8.4569   16.5195    0.0000 O   0  0  0  0  0  0  0  0  0  0  0  0
    6.6284   15.7092    0.0000 O   0  0  0  0  0  0  0  0  0  0  0  0
    8.7601    2.5975    0.0000 O   0  0  0  0  0  0  0  0  0  0  0  0
   11.1559    8.9109    0.0000 O   0  0  0  0  0  0  0  0  0  0  0  0
    8.1044    7.1561    0.0000 O   0  0  0  0  0  0  0  0  0  0  0  0
   12.8339   -6.5585    0.0000 N   0  0  0  0  0  0  0  0  0  0  0  0
   11.2466   -5.2011    0.0000 N   0  0  0  0  0  0  0  0  0  0  0  0
   13.8253   -8.3968    0.0000 N   0  0  0  0  0  0  0  0  0  0  0  0
   11.7511   -2.6039    0.0000 N   0  0  0  0  0  0  0  0  0  0  0  0
   13.5548   14.8753    0.0000 N   0  0  3  0  0  0  0  0  0  0  0  0
   11.3148  -14.4546    0.0000 N   0  0  0  0  0  0  0  0  0  0  0  0
   14.3208  -10.9957    0.0000 N   0  0  0  0  0  0  0  0  0  0  0  0
    8.2526   -1.7318    0.0000 N   0  0  0  0  0  0  0  0  0  0  0  0
   10.8809   14.7520    0.0000 N   0  0  0  0  0  0  0  0  0  0  0  0
   11.2556   -0.0049    0.0000 N   0  0  0  0  0  0  0  0  0  0  0  0
    5.6103  -12.0584    0.0000 N   0  0  0  0  0  0  0  0  0  0  0  0
    9.2601  -14.8294    0.0000 N   0  0  0  0  0  0  0  0  0  0  0  0
   12.3178  -12.7243    0.0000 N   0  0  0  0  0  0  0  0  0  0  0  0
    6.6353  -14.4975    0.0000 N   0  0  0  0  0  0  0  0  0  0  0  0
   14.2503    0.0944    0.0000 N   0  0  0  0  0  0  0  0  0  0  0  0
   16.8485  -12.2321    0.0000 N   0  0  0  0  0  0  0  0  0  0  0  0
   10.2586    1.7288    0.0000 N   0  0  0  0  0  0  0  0  0  0  0  0
    6.7541   -0.8632    0.0000 N   0  0  0  0  0  0  0  0  0  0  0  0
    6.7511   -2.5952    0.0000 N   0  0  0  0  0  0  0  0  0  0  0  0
   13.5948    1.5737    0.0000 N   0  0  0  0  0  0  0  0  0  0  0  0
    4.6783  -16.5194    0.0000 N   0  0  0  0  0  0  0  0  0  0  0  0
    9.7691    7.7919    0.0000 N   0  0  0  0  0  0  0  0  0  0  0  0
   11.1404   -6.1954    0.0000 C   0  0  1  0  0  0  0  0  0  0  0  0
   13.8283   -6.6647    0.0000 C   0  0  1  0  0  0  0  0  0  0  0  0
   10.1619   -6.4016    0.0000 C   0  0  0  0  0  0  0  0  0  0  0  0
    9.6634   -5.5347    0.0000 C   0  0  0  0  0  0  0  0  0  0  0  0
   10.3338   -4.7928    0.0000 C   0  0  0  0  0  0  0  0  0  0  0  0
   14.2366   -5.7519    0.0000 C   0  0  0  0  0  0  0  0  0  0  0  0
   12.6277   -5.5800    0.0000 C   0  0  0  0  0  0  0  0  0  0  0  0
   11.8824   -6.8658    0.0000 C   0  0  0  0  0  0  0  0  0  0  0  0
   13.4946   -5.0815    0.0000 C   0  0  0  0  0  0  0  0  0  0  0  0
   11.7481   -4.3359    0.0000 C   0  0  0  0  0  0  0  0  0  0  0  0
   14.3268   -7.5316    0.0000 C   0  0  0  0  0  0  0  0  0  0  0  0
   11.2496   -3.4690    0.0000 C   0  0  2  0  0  0  0  0  0  0  0  0
   10.2496   -3.4673    0.0000 C   0  0  0  0  0  0  0  0  0  0  0  0
   14.3238   -9.2636    0.0000 C   0  0  1  0  0  0  0  0  0  0  0  0
    9.7511   -2.6004    0.0000 C   0  0  0  0  0  0  0  0  0  0  0  0
   12.6032   14.5680    0.0000 C   0  0  1  0  0  0  0  0  0  0  0  0
   12.6014   13.5680    0.0000 C   0  0  0  0  0  0  0  0  0  0  0  0
   15.3238   -9.2654    0.0000 C   0  0  0  0  0  0  0  0  0  0  0  0
   13.5520   13.2573    0.0000 C   0  0  0  0  0  0  0  0  0  0  0  0
   14.1412   14.0653    0.0000 C   0  0  0  0  0  0  0  0  0  0  0  0
   11.2526   -1.7370    0.0000 C   0  0  0  0  0  0  0  0  0  0  0  0
    8.7511   -2.5987    0.0000 C   0  0  0  0  0  0  0  0  0  0  0  0
   13.8223  -10.1288    0.0000 C   0  0  0  0  0  0  0  0  0  0  0  0
   11.7952   15.1571    0.0000 C   0  0  0  0  0  0  0  0  0  0  0  0
   11.7541   -0.8718    0.0000 C   0  0  2  0  0  0  0  0  0  0  0  0
   10.9065  -15.3674    0.0000 C   0  0  1  0  0  0  0  0  0  0  0  0
   11.6485  -16.0379    0.0000 C   0  0  0  0  0  0  0  0  0  0  0  0
   13.8654   15.8258    0.0000 C   0  0  0  0  0  0  0  0  0  0  0  0
   15.8253   -8.4002    0.0000 C   0  0  0  0  0  0  0  0  0  0  0  0
   12.5154  -15.5394    0.0000 C   0  0  0  0  0  0  0  0  0  0  0  0
   12.3091  -14.5609    0.0000 C   0  0  0  0  0  0  0  0  0  0  0  0
   13.8193  -11.8609    0.0000 C   0  0  1  0  0  0  0  0  0  0  0  0
   12.7541   -0.8736    0.0000 C   0  0  0  0  0  0  0  0  0  0  0  0
   10.8163  -13.5877    0.0000 C   0  0  0  0  0  0  0  0  0  0  0  0
    9.9280  -15.5737    0.0000 C   0  0  0  0  0  0  0  0  0  0  0  0
   11.3178  -12.7226    0.0000 C   0  0  2  0  0  0  0  0  0  0  0  0
    5.8199  -11.0806    0.0000 C   0  0  1  0  0  0  0  0  0  0  0  0
   14.3178  -12.7277    0.0000 C   0  0  0  0  0  0  0  0  0  0  0  0
    8.2816  -15.0356    0.0000 C   0  0  1  0  0  0  0  0  0  0  0  0
    4.9547  -10.5791    0.0000 C   0  0  0  0  0  0  0  0  0  0  0  0
    4.6156  -12.1612    0.0000 C   0  0  0  0  0  0  0  0  0  0  0  0
    4.2104  -11.2469    0.0000 C   0  0  0  0  0  0  0  0  0  0  0  0
   12.8193  -11.8591    0.0000 C   0  0  0  0  0  0  0  0  0  0  0  0
   14.8439   16.0321    0.0000 C   0  0  0  0  0  0  0  0  0  0  0  0
    5.9674  -13.7532    0.0000 C   0  0  2  0  0  0  0  0  0  0  0  0
    7.9710  -15.9861    0.0000 C   0  0  0  0  0  0  0  0  0  0  0  0
   13.2556   -0.0084    0.0000 C   0  0  0  0  0  0  0  0  0  0  0  0
    6.2781  -12.8027    0.0000 C   0  0  0  0  0  0  0  0  0  0  0  0
   10.8193  -11.8557    0.0000 C   0  0  0  0  0  0  0  0  0  0  0  0
    7.6138  -14.2913    0.0000 C   0  0  0  0  0  0  0  0  0  0  0  0
   10.2556   -0.0032    0.0000 C   0  0  0  0  0  0  0  0  0  0  0  0
   15.3178  -12.7295    0.0000 C   0  0  0  0  0  0  0  0  0  0  0  0
    4.9889  -13.9594    0.0000 C   0  0  0  0  0  0  0  0  0  0  0  0
   10.0729   15.3412    0.0000 C   0  0  0  0  0  0  0  0  0  0  0  0
    7.2526   -1.7301    0.0000 C   0  0  0  0  0  0  0  0  0  0  0  0
    9.7571    0.8637    0.0000 C   0  0  2  0  0  0  0  0  0  0  0  0
    6.7341  -10.6754    0.0000 C   0  0  0  0  0  0  0  0  0  0  0  0
    8.6388  -16.7304    0.0000 C   0  0  0  0  0  0  0  0  0  0  0  0
    6.9925  -16.1923    0.0000 C   0  0  0  0  0  0  0  0  0  0  0  0
   15.9000  -13.5352    0.0000 C   0  0  0  0  0  0  0  0  0  0  0  0
    4.6783  -14.9099    0.0000 C   0  0  0  0  0  0  0  0  0  0  0  0
   17.3268   -7.5368    0.0000 C   0  0  0  0  0  0  0  0  0  0  0  0
   15.1546   16.9826    0.0000 C   0  0  0  0  0  0  0  0  0  0  0  0
   12.8505    0.9059    0.0000 C   0  0  0  0  0  0  0  0  0  0  0  0
    9.1587   14.9360    0.0000 C   0  0  0  0  0  0  0  0  0  0  0  0
   15.9028  -11.9258    0.0000 C   0  0  0  0  0  0  0  0  0  0  0  0
    8.7571    0.8654    0.0000 C   0  0  1  0  0  0  0  0  0  0  0  0
   16.8511  -13.2262    0.0000 C   0  0  0  0  0  0  0  0  0  0  0  0
    3.7320  -15.2147    0.0000 C   0  0  0  0  0  0  0  0  0  0  0  0
   14.4599    1.0722    0.0000 C   0  0  0  0  0  0  0  0  0  0  0  0
    5.2619  -15.7147    0.0000 C   0  0  0  0  0  0  0  0  0  0  0  0
   15.6921  -14.5134    0.0000 C   0  0  0  0  0  0  0  0  0  0  0  0
    9.0524   13.9417    0.0000 C   0  0  0  0  0  0  0  0  0  0  0  0
    8.3507   15.5252    0.0000 C   0  0  0  0  0  0  0  0  0  0  0  0
    3.7320  -16.2147    0.0000 C   0  0  0  0  0  0  0  0  0  0  0  0
    8.2556    0.0003    0.0000 C   0  0  0  0  0  0  0  0  0  0  0  0
   17.5942  -13.8953    0.0000 C   0  0  0  0  0  0  0  0  0  0  0  0
    8.1382   13.5365    0.0000 C   0  0  0  0  0  0  0  0  0  0  0  0
    9.7601    2.5957    0.0000 C   0  0  0  0  0  0  0  0  0  0  0  0
    2.8660  -14.7147    0.0000 C   0  0  0  0  0  0  0  0  0  0  0  0
    7.4364   15.1200    0.0000 C   0  0  0  0  0  0  0  0  0  0  0  0
   16.4352  -15.1825    0.0000 C   0  0  0  0  0  0  0  0  0  0  0  0
    7.3302   14.1257    0.0000 C   0  0  0  0  0  0  0  0  0  0  0  0
    8.0319   12.5422    0.0000 C   0  0  0  0  0  0  0  0  0  0  0  0
   17.3863  -14.8735    0.0000 C   0  0  0  0  0  0  0  0  0  0  0  0
    2.8660  -16.7147    0.0000 C   0  0  0  0  0  0  0  0  0  0  0  0
   10.2616    3.4609    0.0000 C   0  0  0  0  0  0  0  0  0  0  0  0
    2.0000  -15.2147    0.0000 C   0  0  0  0  0  0  0  0  0  0  0  0
    8.8399   11.9530    0.0000 C   0  0  0  0  0  0  0  0  0  0  0  0
    9.7631    4.3278    0.0000 C   0  0  0  0  0  0  0  0  0  0  0  0
    2.0000  -16.2147    0.0000 C   0  0  0  0  0  0  0  0  0  0  0  0
   10.2646    5.1929    0.0000 C   0  0  0  0  0  0  0  0  0  0  0  0
    8.7337   10.9587    0.0000 C   0  0  0  0  0  0  0  0  0  0  0  0
    9.7661    6.0598    0.0000 C   0  0  0  0  0  0  0  0  0  0  0  0
    9.4354    9.3751    0.0000 C   0  0  3  0  0  0  0  0  0  0  0  0
   10.2676    6.9250    0.0000 C   0  0  0  0  0  0  0  0  0  0  0  0
    7.6489   17.1087    0.0000 C   0  0  0  0  0  0  0  0  0  0  0  0
    8.5686    8.8766    0.0000 C   0  0  0  0  0  0  0  0  0  0  0  0
   10.1774    8.7047    0.0000 C   0  0  0  0  0  0  0  0  0  0  0  0
    8.7748    7.8981    0.0000 C   0  0  0  0  0  0  0  0  0  0  0  0
    5.7142   15.3041    0.0000 C   0  0  0  0  0  0  0  0  0  0  0  0
   11.7196   -5.9742    0.0000 H   0  0  0  0  0  0  0  0  0  0  0  0
   13.4897   -7.1841    0.0000 H   0  0  0  0  0  0  0  0  0  0  0  0
    9.5950   -6.6528    0.0000 H   0  0  0  0  0  0  0  0  0  0  0  0
   10.3524   -6.9916    0.0000 H   0  0  0  0  0  0  0  0  0  0  0  0
    9.2493   -5.0732    0.0000 H   0  0  0  0  0  0  0  0  0  0  0  0
    9.1612   -5.8982    0.0000 H   0  0  0  0  0  0  0  0  0  0  0  0
   10.6447   -4.2564    0.0000 H   0  0  0  0  0  0  0  0  0  0  0  0
    9.8328   -4.4275    0.0000 H   0  0  0  0  0  0  0  0  0  0  0  0
   14.7730   -6.0628    0.0000 H   0  0  0  0  0  0  0  0  0  0  0  0
   14.6019   -5.2509    0.0000 H   0  0  0  0  0  0  0  0  0  0  0  0
   12.3765   -5.0131    0.0000 H   0  0  0  0  0  0  0  0  0  0  0  0
   12.0377   -5.7705    0.0000 H   0  0  0  0  0  0  0  0  0  0  0  0
   13.9561   -4.6674    0.0000 H   0  0  0  0  0  0  0  0  0  0  0  0
   13.1311   -4.5792    0.0000 H   0  0  0  0  0  0  0  0  0  0  0  0
   10.9405   -2.9316    0.0000 H   0  0  0  0  0  0  0  0  0  0  0  0
    9.6666   -3.6784    0.0000 H   0  0  0  0  0  0  0  0  0  0  0  0
   10.3562   -4.0781    0.0000 H   0  0  0  0  0  0  0  0  0  0  0  0
   13.2053   -8.3957    0.0000 H   0  0  0  0  0  0  0  0  0  0  0  0
   13.7038   -9.2626    0.0000 H   0  0  0  0  0  0  0  0  0  0  0  0
   12.3711   -2.6050    0.0000 H   0  0  0  0  0  0  0  0  0  0  0  0
   10.3341   -2.3894    0.0000 H   0  0  0  0  0  0  0  0  0  0  0  0
    9.6445   -1.9896    0.0000 H   0  0  0  0  0  0  0  0  0  0  0  0
   12.7012   15.1802    0.0000 H   0  0  0  0  0  0  0  0  0  0  0  0
   11.9850   13.6338    0.0000 H   0  0  0  0  0  0  0  0  0  0  0  0
   12.4715   12.9617    0.0000 H   0  0  0  0  0  0  0  0  0  0  0  0
   15.2151   -9.8758    0.0000 H   0  0  0  0  0  0  0  0  0  0  0  0
   15.9060   -9.4784    0.0000 H   0  0  0  0  0  0  0  0  0  0  0  0
   13.2988   12.6913    0.0000 H   0  0  0  0  0  0  0  0  0  0  0  0
   14.0884   12.9464    0.0000 H   0  0  0  0  0  0  0  0  0  0  0  0
   14.6012   13.6496    0.0000 H   0  0  0  0  0  0  0  0  0  0  0  0
   14.6026   14.4794    0.0000 H   0  0  0  0  0  0  0  0  0  0  0  0
    8.1682   -2.8097    0.0000 H   0  0  0  0  0  0  0  0  0  0  0  0
    8.8577   -3.2094    0.0000 H   0  0  0  0  0  0  0  0  0  0  0  0
   12.2419   15.5871    0.0000 H   0  0  0  0  0  0  0  0  0  0  0  0
   11.4494   15.6717    0.0000 H   0  0  0  0  0  0  0  0  0  0  0  0
   12.0650   -0.3354    0.0000 H   0  0  0  0  0  0  0  0  0  0  0  0
   10.5171  -14.8849    0.0000 H   0  0  0  0  0  0  0  0  0  0  0  0
   11.1870  -16.4519    0.0000 H   0  0  0  0  0  0  0  0  0  0  0  0
   12.0120  -16.5401    0.0000 H   0  0  0  0  0  0  0  0  0  0  0  0
   13.8449   16.4455    0.0000 H   0  0  0  0  0  0  0  0  0  0  0  0
   13.2516   15.9132    0.0000 H   0  0  0  0  0  0  0  0  0  0  0  0
   12.7666  -16.1062    0.0000 H   0  0  0  0  0  0  0  0  0  0  0  0
   13.1053  -15.3488    0.0000 H   0  0  0  0  0  0  0  0  0  0  0  0
   15.9340   -7.7898    0.0000 H   0  0  0  0  0  0  0  0  0  0  0  0
   15.2430   -8.1872    0.0000 H   0  0  0  0  0  0  0  0  0  0  0  0
   12.9259  -14.4971    0.0000 H   0  0  0  0  0  0  0  0  0  0  0  0
   12.3102  -13.9409    0.0000 H   0  0  0  0  0  0  0  0  0  0  0  0
   14.9408  -10.9968    0.0000 H   0  0  0  0  0  0  0  0  0  0  0  0
   14.4393  -11.8619    0.0000 H   0  0  0  0  0  0  0  0  0  0  0  0
   12.6454   -1.4840    0.0000 H   0  0  0  0  0  0  0  0  0  0  0  0
   13.3364   -1.0866    0.0000 H   0  0  0  0  0  0  0  0  0  0  0  0
    8.5636   -1.1954    0.0000 H   0  0  0  0  0  0  0  0  0  0  0  0
   11.6269  -13.2600    0.0000 H   0  0  0  0  0  0  0  0  0  0  0  0
   10.8151   14.1355    0.0000 H   0  0  0  0  0  0  0  0  0  0  0  0
   11.5665    0.5315    0.0000 H   0  0  0  0  0  0  0  0  0  0  0  0
    6.3010  -11.4716    0.0000 H   0  0  0  0  0  0  0  0  0  0  0  0
   13.7348  -12.9388    0.0000 H   0  0  0  0  0  0  0  0  0  0  0  0
   14.4244  -13.3385    0.0000 H   0  0  0  0  0  0  0  0  0  0  0  0
    8.4742  -14.4463    0.0000 H   0  0  0  0  0  0  0  0  0  0  0  0
    5.3200  -10.0781    0.0000 H   0  0  0  0  0  0  0  0  0  0  0  0
    4.4947  -10.1634    0.0000 H   0  0  0  0  0  0  0  0  0  0  0  0
    4.0256  -12.3518    0.0000 H   0  0  0  0  0  0  0  0  0  0  0  0
    4.7434  -12.7679    0.0000 H   0  0  0  0  0  0  0  0  0  0  0  0
    3.8468  -10.7447    0.0000 H   0  0  0  0  0  0  0  0  0  0  0  0
    3.6729  -11.5560    0.0000 H   0  0  0  0  0  0  0  0  0  0  0  0
    9.4528  -14.2400    0.0000 H   0  0  0  0  0  0  0  0  0  0  0  0
   15.2580   15.5706    0.0000 H   0  0  0  0  0  0  0  0  0  0  0  0
    6.5741  -13.6253    0.0000 H   0  0  0  0  0  0  0  0  0  0  0  0
   12.6269  -13.2618    0.0000 H   0  0  0  0  0  0  0  0  0  0  0  0
    8.5776  -15.8582    0.0000 H   0  0  0  0  0  0  0  0  0  0  0  0
   10.3450  -11.4563    0.0000 H   0  0  0  0  0  0  0  0  0  0  0  0
   10.3437  -12.2534    0.0000 H   0  0  0  0  0  0  0  0  0  0  0  0
    6.4427  -15.0868    0.0000 H   0  0  0  0  0  0  0  0  0  0  0  0
    4.9684  -13.3398    0.0000 H   0  0  0  0  0  0  0  0  0  0  0  0
    4.3751  -13.8721    0.0000 H   0  0  0  0  0  0  0  0  0  0  0  0
   10.3771    0.8626    0.0000 H   0  0  0  0  0  0  0  0  0  0  0  0
    8.1774  -17.1445    0.0000 H   0  0  0  0  0  0  0  0  0  0  0  0
    9.0529  -17.1919    0.0000 H   0  0  0  0  0  0  0  0  0  0  0  0
    9.1003  -16.3163    0.0000 H   0  0  0  0  0  0  0  0  0  0  0  0
    6.8646  -15.5856    0.0000 H   0  0  0  0  0  0  0  0  0  0  0  0
    6.3858  -16.3202    0.0000 H   0  0  0  0  0  0  0  0  0  0  0  0
    7.1203  -16.7990    0.0000 H   0  0  0  0  0  0  0  0  0  0  0  0
   15.7613   17.1104    0.0000 H   0  0  0  0  0  0  0  0  0  0  0  0
   14.7405   17.4441    0.0000 H   0  0  0  0  0  0  0  0  0  0  0  0
   14.6644   -0.3671    0.0000 H   0  0  0  0  0  0  0  0  0  0  0  0
   17.8632   -7.8477    0.0000 H   0  0  0  0  0  0  0  0  0  0  0  0
   17.6377   -7.0004    0.0000 H   0  0  0  0  0  0  0  0  0  0  0  0
   16.7904   -7.2259    0.0000 H   0  0  0  0  0  0  0  0  0  0  0  0
   12.2442    1.0358    0.0000 H   0  0  0  0  0  0  0  0  0  0  0  0
   15.7112  -11.3361    0.0000 H   0  0  0  0  0  0  0  0  0  0  0  0
    8.1371    0.8665    0.0000 H   0  0  0  0  0  0  0  0  0  0  0  0
   17.3494  -11.8668    0.0000 H   0  0  0  0  0  0  0  0  0  0  0  0
   10.8786    1.7278    0.0000 H   0  0  0  0  0  0  0  0  0  0  0  0
    6.1341   -0.8621    0.0000 H   0  0  0  0  0  0  0  0  0  0  0  0
    7.0650   -0.3268    0.0000 H   0  0  0  0  0  0  0  0  0  0  0  0
   11.0117  -10.4530    0.0000 H   0  0  0  0  0  0  0  0  0  0  0  0
   15.0268    1.3234    0.0000 H   0  0  0  0  0  0  0  0  0  0  0  0
    5.8819  -15.7147    0.0000 H   0  0  0  0  0  0  0  0  0  0  0  0
   15.1024  -14.7050    0.0000 H   0  0  0  0  0  0  0  0  0  0  0  0
    9.5534   13.5764    0.0000 H   0  0  0  0  0  0  0  0  0  0  0  0
    6.1311   -2.5942    0.0000 H   0  0  0  0  0  0  0  0  0  0  0  0
    7.7192    0.3112    0.0000 H   0  0  0  0  0  0  0  0  0  0  0  0
    7.9447   -0.5361    0.0000 H   0  0  0  0  0  0  0  0  0  0  0  0
    8.7920   -0.3107    0.0000 H   0  0  0  0  0  0  0  0  0  0  0  0
    7.4072   -9.4299    0.0000 H   0  0  0  0  0  0  0  0  0  0  0  0
    4.8709  -17.1087    0.0000 H   0  0  0  0  0  0  0  0  0  0  0  0
   18.1839  -13.7037    0.0000 H   0  0  0  0  0  0  0  0  0  0  0  0
    2.8660  -14.0947    0.0000 H   0  0  0  0  0  0  0  0  0  0  0  0
   16.3063  -15.7889    0.0000 H   0  0  0  0  0  0  0  0  0  0  0  0
    7.6386    1.7334    0.0000 H   0  0  0  0  0  0  0  0  0  0  0  0
    6.7634   13.8745    0.0000 H   0  0  0  0  0  0  0  0  0  0  0  0
    7.4362   12.7141    0.0000 H   0  0  0  0  0  0  0  0  0  0  0  0
    7.7592   11.9854    0.0000 H   0  0  0  0  0  0  0  0  0  0  0  0
   17.8470  -15.2883    0.0000 H   0  0  0  0  0  0  0  0  0  0  0  0
    2.8660  -17.3347    0.0000 H   0  0  0  0  0  0  0  0  0  0  0  0
   10.7359    3.0615    0.0000 H   0  0  0  0  0  0  0  0  0  0  0  0
   10.7372    3.8586    0.0000 H   0  0  0  0  0  0  0  0  0  0  0  0
    1.4631  -14.9047    0.0000 H   0  0  0  0  0  0  0  0  0  0  0  0
    9.4356   11.7811    0.0000 H   0  0  0  0  0  0  0  0  0  0  0  0
    9.1127   12.5098    0.0000 H   0  0  0  0  0  0  0  0  0  0  0  0
    9.2888    4.7271    0.0000 H   0  0  0  0  0  0  0  0  0  0  0  0
    9.2875    3.9301    0.0000 H   0  0  0  0  0  0  0  0  0  0  0  0
    1.4631  -16.5247    0.0000 H   0  0  0  0  0  0  0  0  0  0  0  0
   10.7389    4.7936    0.0000 H   0  0  0  0  0  0  0  0  0  0  0  0
   10.7402    5.5906    0.0000 H   0  0  0  0  0  0  0  0  0  0  0  0
    8.1380   11.1306    0.0000 H   0  0  0  0  0  0  0  0  0  0  0  0
    8.4609   10.4019    0.0000 H   0  0  0  0  0  0  0  0  0  0  0  0
    9.2918    6.4592    0.0000 H   0  0  0  0  0  0  0  0  0  0  0  0
    9.2905    5.6621    0.0000 H   0  0  0  0  0  0  0  0  0  0  0  0
    8.9160    9.7137    0.0000 H   0  0  0  0  0  0  0  0  0  0  0  0
   10.7419    6.5256    0.0000 H   0  0  0  0  0  0  0  0  0  0  0  0
   10.7432    7.3227    0.0000 H   0  0  0  0  0  0  0  0  0  0  0  0
    8.0142   17.6097    0.0000 H   0  0  0  0  0  0  0  0  0  0  0  0
    7.1480   17.4740    0.0000 H   0  0  0  0  0  0  0  0  0  0  0  0
    7.2836   16.6078    0.0000 H   0  0  0  0  0  0  0  0  0  0  0  0
    8.3174    9.4435    0.0000 H   0  0  0  0  0  0  0  0  0  0  0  0
    7.9786    8.6861    0.0000 H   0  0  0  0  0  0  0  0  0  0  0  0
    5.4630   15.8709    0.0000 H   0  0  0  0  0  0  0  0  0  0  0  0
    5.1474   15.0529    0.0000 H   0  0  0  0  0  0  0  0  0  0  0  0
    5.9654   14.7372    0.0000 H   0  0  0  0  0  0  0  0  0  0  0  0
  1 74  1  0  0  0  0
  1107  1  0  0  0  0
  2138  1  0  0  0  0
  2140  1  0  0  0  0
  3 53  2  0  0  0  0
  4 55  2  0  0  0  0
  5 56  2  0  0  0  0
  6 66  2  0  0  0  0
  7 68  2  0  0  0  0
  8 79  2  0  0  0  0
  9 80  2  0  0  0  0
 10 88  2  0  0  0  0
 11 94  1  0  0  0  0
 11242  1  0  0  0  0
 12 93  2  0  0  0  0
 13 95  2  0  0  0  0
 14 96  2  0  0  0  0
 15 99  2  0  0  0  0
 16102  1  0  0  0  0
 16251  1  0  0  0  0
 17102  2  0  0  0  0
112 18  1  1  0  0  0
 18256  1  0  0  0  0
 19119  1  0  0  0  0
 19142  1  0  0  0  0
 20126  1  0  0  0  0
 20146  1  0  0  0  0
 21124  2  0  0  0  0
 22144  2  0  0  0  0
 23145  2  0  0  0  0
 24 47  1  0  0  0  0
 24 52  1  0  0  0  0
 24 53  1  0  0  0  0
 25 46  1  0  0  0  0
 25 50  1  0  0  0  0
 25 55  1  0  0  0  0
 26 56  1  0  0  0  0
 59 26  1  1  0  0  0
 26164  1  0  0  0  0
 57 27  1  6  0  0  0
 27 66  1  0  0  0  0
 27166  1  0  0  0  0
 28 61  1  0  0  0  0
 28 65  1  0  0  0  0
 28 73  1  0  0  0  0
 29 71  1  0  0  0  0
 29 76  1  0  0  0  0
 29 79  1  0  0  0  0
 30 68  1  0  0  0  0
 77 30  1  1  0  0  0
 30194  1  0  0  0  0
 31 67  1  0  0  0  0
 31100  1  0  0  0  0
 31198  1  0  0  0  0
 32 69  1  0  0  0  0
 32 99  1  0  0  0  0
 32200  1  0  0  0  0
 70 33  1  1  0  0  0
 33 96  1  0  0  0  0
 33201  1  0  0  0  0
 34 82  1  0  0  0  0
 34 86  1  0  0  0  0
 34 93  1  0  0  0  0
 35 80  1  0  0  0  0
 84 35  1  1  0  0  0
 35212  1  0  0  0  0
 81 36  1  6  0  0  0
 36 88  1  0  0  0  0
 36215  1  0  0  0  0
 90 37  1  1  0  0  0
 37 95  1  0  0  0  0
 37219  1  0  0  0  0
 38 92  1  0  0  0  0
 38115  1  0  0  0  0
 38231  1  0  0  0  0
 39111  1  0  0  0  0
 39113  1  0  0  0  0
 39238  1  0  0  0  0
101 40  1  6  0  0  0
 40124  1  0  0  0  0
 40239  1  0  0  0  0
 41100  1  0  0  0  0
 41240  1  0  0  0  0
 41241  1  0  0  0  0
 42100  2  0  0  0  0
 42247  1  0  0  0  0
 43109  1  0  0  0  0
 43115  2  0  0  0  0
 44116  1  0  0  0  0
 44120  1  0  0  0  0
 44252  1  0  0  0  0
 45141  1  0  0  0  0
 45144  1  0  0  0  0
 45145  1  0  0  0  0
 46 48  1  0  0  0  0
 46 53  1  6  0  0  0
 46147  1  0  0  0  0
 47 51  1  0  0  0  0
 47 56  1  1  0  0  0
 47148  1  0  0  0  0
 48 49  1  0  0  0  0
 48149  1  0  0  0  0
 48150  1  0  0  0  0
 49 50  1  0  0  0  0
 49151  1  0  0  0  0
 49152  1  0  0  0  0
 50153  1  0  0  0  0
 50154  1  0  0  0  0
 51 54  1  0  0  0  0
 51155  1  0  0  0  0
 51156  1  0  0  0  0
 52 54  1  0  0  0  0
 52157  1  0  0  0  0
 52158  1  0  0  0  0
 54159  1  0  0  0  0
 54160  1  0  0  0  0
 55 57  1  0  0  0  0
 57 58  1  0  0  0  0
 57161  1  0  0  0  0
 58 60  1  0  0  0  0
 58162  1  0  0  0  0
 58163  1  0  0  0  0
 59 63  1  0  0  0  0
 59 68  1  0  0  0  0
 59165  1  0  0  0  0
 60 67  1  0  0  0  0
 60167  1  0  0  0  0
 60168  1  0  0  0  0
 61 62  1  0  0  0  0
 61 69  1  1  0  0  0
 61169  1  0  0  0  0
 62 64  1  0  0  0  0
 62170  1  0  0  0  0
 62171  1  0  0  0  0
 63 74  1  0  0  0  0
 63172  1  0  0  0  0
 63173  1  0  0  0  0
 64 65  1  0  0  0  0
 64174  1  0  0  0  0
 64175  1  0  0  0  0
 65176  1  0  0  0  0
 65177  1  0  0  0  0
 66 70  1  0  0  0  0
 67178  1  0  0  0  0
 67179  1  0  0  0  0
 69180  1  0  0  0  0
 69181  1  0  0  0  0
 70 78  1  0  0  0  0
 70182  1  0  0  0  0
 71 72  1  0  0  0  0
 71 80  1  1  0  0  0
 71183  1  0  0  0  0
 72 75  1  0  0  0  0
 72184  1  0  0  0  0
 72185  1  0  0  0  0
 73 89  1  0  0  0  0
 73186  1  0  0  0  0
 73187  1  0  0  0  0
 74190  1  0  0  0  0
 74191  1  0  0  0  0
 75 76  1  0  0  0  0
 75188  1  0  0  0  0
 75189  1  0  0  0  0
 76192  1  0  0  0  0
 76193  1  0  0  0  0
 77 83  1  0  0  0  0
 77 88  1  0  0  0  0
 77195  1  0  0  0  0
 78 92  1  0  0  0  0
 78196  1  0  0  0  0
 78197  1  0  0  0  0
 79 81  1  0  0  0  0
 81 94  1  0  0  0  0
 81199  1  0  0  0  0
 82 85  1  0  0  0  0
 82102  1  1  0  0  0
 82202  1  0  0  0  0
 83 97  1  0  0  0  0
 83203  1  0  0  0  0
 83204  1  0  0  0  0
 84 91  1  0  0  0  0
 84 95  1  0  0  0  0
 84205  1  0  0  0  0
 85 87  1  0  0  0  0
 85206  1  0  0  0  0
 85207  1  0  0  0  0
 86 87  1  0  0  0  0
 86208  1  0  0  0  0
 86209  1  0  0  0  0
 87210  1  0  0  0  0
 87211  1  0  0  0  0
 89108  2  0  0  0  0
 89213  1  0  0  0  0
 90 93  1  0  0  0  0
 90 98  1  0  0  0  0
 90214  1  0  0  0  0
 91103  1  0  0  0  0
 91104  1  0  0  0  0
 91216  1  0  0  0  0
 92109  2  0  0  0  0
 94217  1  0  0  0  0
 94218  1  0  0  0  0
 96101  1  0  0  0  0
 97105  1  0  0  0  0
 97111  2  0  0  0  0
 98106  1  0  0  0  0
 98220  1  0  0  0  0
 98221  1  0  0  0  0
 99110  1  0  0  0  0
101112  1  0  0  0  0
101222  1  0  0  0  0
103223  1  0  0  0  0
103224  1  0  0  0  0
103225  1  0  0  0  0
104226  1  0  0  0  0
104227  1  0  0  0  0
104228  1  0  0  0  0
105113  1  0  0  0  0
105117  2  0  0  0  0
106114  1  0  0  0  0
106116  2  0  0  0  0
107232  1  0  0  0  0
107233  1  0  0  0  0
107234  1  0  0  0  0
108229  1  0  0  0  0
108230  1  0  0  0  0
109235  1  0  0  0  0
110118  1  0  0  0  0
110119  2  0  0  0  0
111236  1  0  0  0  0
112121  1  0  0  0  0
112237  1  0  0  0  0
113122  2  0  0  0  0
114120  1  0  0  0  0
114125  2  0  0  0  0
115243  1  0  0  0  0
116244  1  0  0  0  0
117127  1  0  0  0  0
117245  1  0  0  0  0
118123  2  0  0  0  0
118246  1  0  0  0  0
119126  1  0  0  0  0
120131  2  0  0  0  0
121248  1  0  0  0  0
121249  1  0  0  0  0
121250  1  0  0  0  0
122130  1  0  0  0  0
122253  1  0  0  0  0
123128  1  0  0  0  0
123129  1  0  0  0  0
124132  1  0  0  0  0
125133  1  0  0  0  0
125254  1  0  0  0  0
126128  2  0  0  0  0
127130  2  0  0  0  0
127255  1  0  0  0  0
128257  1  0  0  0  0
129134  1  0  0  0  0
129258  1  0  0  0  0
129259  1  0  0  0  0
130260  1  0  0  0  0
131136  1  0  0  0  0
131261  1  0  0  0  0
132135  1  0  0  0  0
132262  1  0  0  0  0
132263  1  0  0  0  0
133136  2  0  0  0  0
133264  1  0  0  0  0
134138  1  0  0  0  0
134265  1  0  0  0  0
134266  1  0  0  0  0
135137  1  0  0  0  0
135267  1  0  0  0  0
135268  1  0  0  0  0
136269  1  0  0  0  0
137139  1  0  0  0  0
137270  1  0  0  0  0
137271  1  0  0  0  0
138272  1  0  0  0  0
138273  1  0  0  0  0
139141  1  0  0  0  0
139274  1  0  0  0  0
139275  1  0  0  0  0
140143  1  0  0  0  0
140144  1  0  0  0  0
140276  1  0  0  0  0
141277  1  0  0  0  0
141278  1  0  0  0  0
142279  1  0  0  0  0
142280  1  0  0  0  0
142281  1  0  0  0  0
143145  1  0  0  0  0
143282  1  0  0  0  0
143283  1  0  0  0  0
146284  1  0  0  0  0
146285  1  0  0  0  0
146286  1  0  0  0  0
M  END
> <PUBCHEM_COMPOUND_CID>
90656838

> <PUBCHEM_COMPOUND_CANONICALIZED>
1

> <PUBCHEM_CACTVS_COMPLEXITY>
4490

> <PUBCHEM_CACTVS_HBOND_ACCEPTOR>
26

> <PUBCHEM_CACTVS_HBOND_DONOR>
18

> <PUBCHEM_CACTVS_ROTATABLE_BOND>
55

> <PUBCHEM_CACTVS_SUBSKEYS>
AAADcfB//gBgAAAAAAAAAAAAAAAAAWLFixYwYMAAAAAAAFgB/gAAHgQQCAAADTzl3ga/3vfJlgioAzX3fACCiC21MrAJ2aG+/NiPfvbk/buUcWpu9jP66ae/2fKOoAADAAAKQABAAAYAABSAAAAAAAAAAA==

> <PUBCHEM_IUPAC_OPENEYE_NAME>
(2S)-1-[(2S)-2-[[(2S)-2-[[(2S)-1-[(2S)-2-[[(2S)-2-[[(2S)-2-[[(2S)-1-[(2S)-1-[(2S)-2-[[(2S)-2-[[(2S,3R)-2-[6-[3-[3-[3-[[(2S)-1-allylpyrrolidin-2-yl]methylcarbamoyl]-4,5-dimethoxy-phenyl]propylsulfanyl]-2,5-dioxo-pyrrolidin-1-yl]hexanoylamino]-3-hydroxy-butanoyl]amino]-3-(1H-imidazol-5-yl)propanoyl]amino]-5-guanidino-pentanoyl]pyrrolidine-2-carbonyl]pyrrolidine-2-carbonyl]amino]-4-methylsulfanyl-butanoyl]amino]-3-(1H-indol-3-yl)propanoyl]amino]-3-hydroxy-propanoyl]pyrrolidine-2-carbonyl]amino]-3-methyl-butanoyl]amino]-3-(1H-indol-3-yl)propanoyl]pyrrolidine-2-carboxylic acid

> <PUBCHEM_IUPAC_CAS_NAME>
(2S)-1-[(2S)-2-[[(2S)-2-[[[(2S)-1-[(2S)-2-[[(2S)-2-[[(2S)-2-[[[(2S)-1-[[(2S)-1-[(2S)-5-carbamimidamido-2-[[(2S)-2-[[(2S,3R)-2-[[6-[3-[3-[3,4-dimethoxy-5-[oxo-[[(2S)-1-prop-2-enyl-2-pyrrolidinyl]methylamino]methyl]phenyl]propylthio]-2,5-dioxo-1-pyrrolidinyl]-1-oxohexyl]amino]-3-hydroxy-1-oxobutyl]amino]-3-(1H-imidazol-5-yl)-1-oxopropyl]amino]-1-oxopentyl]-2-pyrrolidinyl]-oxomethyl]-2-pyrrolidinyl]-oxomethyl]amino]-4-(methylthio)-1-oxobutyl]amino]-3-(1H-indol-3-yl)-1-oxopropyl]amino]-3-hydroxy-1-oxopropyl]-2-pyrrolidinyl]-oxomethyl]amino]-3-methyl-1-oxobutyl]amino]-3-(1H-indol-3-yl)-1-oxopropyl]-2-pyrrolidinecarboxylic acid

> <PUBCHEM_IUPAC_NAME_MARKUP>
(2<I>S</I>)-1-[(2<I>S</I>)-2-[[(2<I>S</I>)-2-[[(2<I>S</I>)-1-[(2<I>S</I>)-2-[[(2<I>S</I>)-2-[[(2<I>S</I>)-2-[[(2<I>S</I>)-1-[(2<I>S</I>)-1-[(2<I>S</I>)-5-carbamimidamido-2-[[(2<I>S</I>)-2-[[(2<I>S</I>,3<I>R</I>)-2-[6-[3-[3-[3,4-dimethoxy-5-[[(2<I>S</I>)-1-prop-2-enylpyrrolidin-2-yl]methylcarbamoyl]phenyl]propylsulfanyl]-2,5-dioxopyrrolidin-1-yl]hexanoylamino]-3-hydroxybutanoyl]amino]-3-(1<I>H</I>-imidazol-5-yl)propanoyl]amino]pentanoyl]pyrrolidine-2-carbonyl]pyrrolidine-2-carbonyl]amino]-4-methylsulfanylbutanoyl]amino]-3-(1<I>H</I>-indol-3-yl)propanoyl]amino]-3-hydroxypropanoyl]pyrrolidine-2-carbonyl]amino]-3-methylbutanoyl]amino]-3-(1<I>H</I>-indol-3-yl)propanoyl]pyrrolidine-2-carboxylic acid

> <PUBCHEM_IUPAC_NAME>
(2S)-1-[(2S)-2-[[(2S)-2-[[(2S)-1-[(2S)-2-[[(2S)-2-[[(2S)-2-[[(2S)-1-[(2S)-1-[(2S)-5-carbamimidamido-2-[[(2S)-2-[[(2S,3R)-2-[6-[3-[3-[3,4-dimethoxy-5-[[(2S)-1-prop-2-enylpyrrolidin-2-yl]methylcarbamoyl]phenyl]propylsulfanyl]-2,5-dioxopyrrolidin-1-yl]hexanoylamino]-3-hydroxybutanoyl]amino]-3-(1H-imidazol-5-yl)propanoyl]amino]pentanoyl]pyrrolidine-2-carbonyl]pyrrolidine-2-carbonyl]amino]-4-methylsulfanylbutanoyl]amino]-3-(1H-indol-3-yl)propanoyl]amino]-3-hydroxypropanoyl]pyrrolidine-2-carbonyl]amino]-3-methylbutanoyl]amino]-3-(1H-indol-3-yl)propanoyl]pyrrolidine-2-carboxylic acid

> <PUBCHEM_IUPAC_SYSTEMATIC_NAME>
(2S)-1-[(2S)-2-[[(2S)-2-[[(2S)-1-[(2S)-2-[[(2S)-2-[[(2S)-2-[[(2S)-1-[(2S)-1-[(2S)-5-carbamimidamido-2-[[(2S)-2-[[(2S,3R)-2-[6-[3-[3-[3,4-dimethoxy-5-[[(2S)-1-prop-2-enylpyrrolidin-2-yl]methylcarbamoyl]phenyl]propylsulfanyl]-2,5-bis(oxidanylidene)pyrrolidin-1-yl]hexanoylamino]-3-oxidanyl-butanoyl]amino]-3-(1H-imidazol-5-yl)propanoyl]amino]pentanoyl]pyrrolidin-2-yl]carbonylpyrrolidin-2-yl]carbonylamino]-4-methylsulfanyl-butanoyl]amino]-3-(1H-indol-3-yl)propanoyl]amino]-3-oxidanyl-propanoyl]pyrrolidin-2-yl]carbonylamino]-3-methyl-butanoyl]amino]-3-(1H-indol-3-yl)propanoyl]pyrrolidine-2-carboxylic acid

> <PUBCHEM_IUPAC_TRADITIONAL_NAME>
(2S)-1-[(2S)-2-[[(2S)-2-[[(2S)-1-[(2S)-2-[[(2S)-2-[[(2S)-2-[[(2S)-1-[(2S)-1-[(2S)-2-[[(2S)-2-[[(2S,3R)-2-[6-[3-[3-[3-[[(2S)-1-allylpyrrolidin-2-yl]methylcarbamoyl]-4,5-dimethoxy-phenyl]propylthio]-2,5-diketo-pyrrolidino]hexanoylamino]-3-hydroxy-butanoyl]amino]-3-(1H-imidazol-5-yl)propanoyl]amino]-5-guanidino-pentanoyl]prolyl]prolyl]amino]-4-(methylthio)butanoyl]amino]-3-(1H-indol-3-yl)propanoyl]amino]-3-hydroxy-propanoyl]prolyl]amino]-3-methyl-butanoyl]amino]-3-(1H-indol-3-yl)propanoyl]proline

> <PUBCHEM_IUPAC_INCHI>
InChI=1S/C101H140N22O21S2/c1-8-37-118-38-17-24-64(118)55-108-87(128)67-46-60(47-80(143-5)86(67)144-6)23-22-44-146-81-51-83(127)123(99(81)140)39-15-9-10-34-82(126)116-85(59(4)125)94(135)113-73(50-63-54-104-57-109-63)90(131)111-71(29-16-36-105-101(102)103)95(136)121-42-20-32-78(121)98(139)120-41-19-30-76(120)91(132)110-70(35-45-145-7)88(129)112-72(48-61-52-106-68-27-13-11-25-65(61)68)89(130)115-75(56-124)97(138)119-40-18-31-77(119)92(133)117-84(58(2)3)93(134)114-74(96(137)122-43-21-33-79(122)100(141)142)49-62-53-107-69-28-14-12-26-66(62)69/h8,11-14,25-28,46-47,52-54,57-59,64,70-79,81,84-85,106-107,124-125H,1,9-10,15-24,29-45,48-51,55-56H2,2-7H3,(H,104,109)(H,108,128)(H,110,132)(H,111,131)(H,112,129)(H,113,135)(H,114,134)(H,115,130)(H,116,126)(H,117,133)(H,141,142)(H4,102,103,105)/t59-,64+,70+,71+,72+,73+,74+,75+,76+,77+,78+,79+,81?,84+,85+/m1/s1

> <PUBCHEM_IUPAC_INCHIKEY>
IXSUYJGJHMRPNB-LZPMYQHXSA-N

> <PUBCHEM_XLOGP3_AA>
1.5

> <PUBCHEM_EXACT_MASS>
2062.00383675

> <PUBCHEM_MOLECULAR_FORMULA>
C101H140N22O21S2

> <PUBCHEM_MOLECULAR_WEIGHT>
2062.5

> <PUBCHEM_OPENEYE_CAN_SMILES>
CC(C)C(C(=O)NC(CC1=CNC2=CC=CC=C21)C(=O)N3CCCC3C(=O)O)NC(=O)C4CCCN4C(=O)C(CO)NC(=O)C(CC5=CNC6=CC=CC=C65)NC(=O)C(CCSC)NC(=O)C7CCCN7C(=O)C8CCCN8C(=O)C(CCCNC(=N)N)NC(=O)C(CC9=CN=CN9)NC(=O)C(C(C)O)NC(=O)CCCCCN1C(=O)CC(C1=O)SCCCC1=CC(=C(C(=C1)OC)OC)C(=O)NCC1CCCN1CC=C

> <PUBCHEM_OPENEYE_ISO_SMILES>
C[C@H]([C@@H](C(=O)N[C@@H](CC1=CN=CN1)C(=O)N[C@@H](CCCNC(=N)N)C(=O)N2CCC[C@H]2C(=O)N3CCC[C@H]3C(=O)N[C@@H](CCSC)C(=O)N[C@@H](CC4=CNC5=CC=CC=C54)C(=O)N[C@@H](CO)C(=O)N6CCC[C@H]6C(=O)N[C@@H](C(C)C)C(=O)N[C@@H](CC7=CNC8=CC=CC=C87)C(=O)N9CCC[C@H]9C(=O)O)NC(=O)CCCCCN1C(=O)CC(C1=O)SCCCC1=CC(=C(C(=C1)OC)OC)C(=O)NC[C@@H]1CCCN1CC=C)O

> <PUBCHEM_CACTVS_TPSA>
653

> <PUBCHEM_MONOISOTOPIC_WEIGHT>
2061.00048191

> <PUBCHEM_TOTAL_CHARGE>
0

> <PUBCHEM_HEAVY_ATOM_COUNT>
146

> <PUBCHEM_ATOM_DEF_STEREO_COUNT>
14

> <PUBCHEM_ATOM_UDEF_STEREO_COUNT>
1

> <PUBCHEM_BOND_DEF_STEREO_COUNT>
0

> <PUBCHEM_BOND_UDEF_STEREO_COUNT>
0

> <PUBCHEM_ISOTOPIC_ATOM_COUNT>
0

> <PUBCHEM_COMPONENT_COUNT>
1

> <PUBCHEM_CACTVS_TAUTO_COUNT>
-1

> <PUBCHEM_COORDINATE_TYPE>
1
5
255

> <PUBCHEM_BONDANNOTATIONS>
105  113  8
105  117  8
106  114  8
106  116  8
110  118  8
110  119  8
113  122  8
114  120  8
114  125  8
117  127  8
118  123  8
119  126  8
120  131  8
122  130  8
123  128  8
125  133  8
126  128  8
127  130  8
131  136  8
133  136  8
112  18  5
140  2  3
59  26  5
57  27  6
77  30  5
70  33  5
84  35  5
81  36  6
90  37  5
38  115  8
38  92  8
39  111  8
39  113  8
101  40  6
43  109  8
43  115  8
44  116  8
44  120  8
46  53  6
47  56  5
61  69  5
71  80  5
82  102  5
92  109  8
97  105  8
97  111  8

$$$$
