10687967
  -OEChem-09292322132D

 50 53  0     0  0  0  0  0  0999 V2000
    4.5981   -1.5262    0.0000 N   0  0  0  0  0  0  0  0  0  0  0  0
    3.7891    2.0616    0.0000 N   0  0  0  0  0  0  0  0  0  0  0  0
    4.0981    3.0127    0.0000 N   0  0  0  0  0  0  0  0  0  0  0  0
    4.5981    0.4738    0.0000 C   0  0  0  0  0  0  0  0  0  0  0  0
    3.7320   -0.0262    0.0000 C   0  0  0  0  0  0  0  0  0  0  0  0
    5.4641   -0.0262    0.0000 C   0  0  0  0  0  0  0  0  0  0  0  0
    3.7320   -1.0262    0.0000 C   0  0  0  0  0  0  0  0  0  0  0  0
    5.4641   -1.0262    0.0000 C   0  0  0  0  0  0  0  0  0  0  0  0
    4.5981    1.4738    0.0000 C   0  0  0  0  0  0  0  0  0  0  0  0
    4.5981   -2.5262    0.0000 C   0  0  0  0  0  0  0  0  0  0  0  0
    5.4071    2.0616    0.0000 C   0  0  0  0  0  0  0  0  0  0  0  0
    3.7320   -3.0262    0.0000 C   0  0  0  0  0  0  0  0  0  0  0  0
    5.0981    3.0127    0.0000 C   0  0  0  0  0  0  0  0  0  0  0  0
    5.6859    3.8217    0.0000 C   0  0  0  0  0  0  0  0  0  0  0  0
    2.8660   -2.5262    0.0000 C   0  0  0  0  0  0  0  0  0  0  0  0
    3.7320   -4.0262    0.0000 C   0  0  0  0  0  0  0  0  0  0  0  0
    6.6804    3.7172    0.0000 C   0  0  0  0  0  0  0  0  0  0  0  0
    2.0000   -3.0262    0.0000 C   0  0  0  0  0  0  0  0  0  0  0  0
    2.8660   -4.5262    0.0000 C   0  0  0  0  0  0  0  0  0  0  0  0
    2.0000   -4.0262    0.0000 C   0  0  0  0  0  0  0  0  0  0  0  0
    7.0871    2.8036    0.0000 C   0  0  0  0  0  0  0  0  0  0  0  0
    7.2682    4.5262    0.0000 C   0  0  0  0  0  0  0  0  0  0  0  0
    8.0816    2.6991    0.0000 C   0  0  0  0  0  0  0  0  0  0  0  0
    8.2627    4.4216    0.0000 C   0  0  0  0  0  0  0  0  0  0  0  0
    8.6694    3.5081    0.0000 C   0  0  0  0  0  0  0  0  0  0  0  0
    5.1350    0.7838    0.0000 H   0  0  0  0  0  0  0  0  0  0  0  0
    3.5200    0.5564    0.0000 H   0  0  0  0  0  0  0  0  0  0  0  0
    3.1215   -0.1338    0.0000 H   0  0  0  0  0  0  0  0  0  0  0  0
    6.0747   -0.1338    0.0000 H   0  0  0  0  0  0  0  0  0  0  0  0
    5.6762    0.5564    0.0000 H   0  0  0  0  0  0  0  0  0  0  0  0
    3.1215   -0.9185    0.0000 H   0  0  0  0  0  0  0  0  0  0  0  0
    3.5200   -1.6088    0.0000 H   0  0  0  0  0  0  0  0  0  0  0  0
    5.6762   -1.6088    0.0000 H   0  0  0  0  0  0  0  0  0  0  0  0
    6.0747   -0.9185    0.0000 H   0  0  0  0  0  0  0  0  0  0  0  0
    4.8101   -3.1088    0.0000 H   0  0  0  0  0  0  0  0  0  0  0  0
    5.2087   -2.4185    0.0000 H   0  0  0  0  0  0  0  0  0  0  0  0
    5.9967    1.8700    0.0000 H   0  0  0  0  0  0  0  0  0  0  0  0
    3.7336    3.5143    0.0000 H   0  0  0  0  0  0  0  0  0  0  0  0
    5.8568    4.4177    0.0000 H   0  0  0  0  0  0  0  0  0  0  0  0
    5.1286    4.0935    0.0000 H   0  0  0  0  0  0  0  0  0  0  0  0
    2.8660   -1.9062    0.0000 H   0  0  0  0  0  0  0  0  0  0  0  0
    4.2690   -4.3362    0.0000 H   0  0  0  0  0  0  0  0  0  0  0  0
    1.4631   -2.7162    0.0000 H   0  0  0  0  0  0  0  0  0  0  0  0
    2.8660   -5.1462    0.0000 H   0  0  0  0  0  0  0  0  0  0  0  0
    1.4631   -4.3362    0.0000 H   0  0  0  0  0  0  0  0  0  0  0  0
    6.7227    2.3020    0.0000 H   0  0  0  0  0  0  0  0  0  0  0  0
    7.0160    5.0926    0.0000 H   0  0  0  0  0  0  0  0  0  0  0  0
    8.3338    2.1327    0.0000 H   0  0  0  0  0  0  0  0  0  0  0  0
    8.6271    4.9232    0.0000 H   0  0  0  0  0  0  0  0  0  0  0  0
    9.2860    3.4433    0.0000 H   0  0  0  0  0  0  0  0  0  0  0  0
  1  7  1  0  0  0  0
  1  8  1  0  0  0  0
  1 10  1  0  0  0  0
  2  3  1  0  0  0  0
  2  9  2  0  0  0  0
  3 13  1  0  0  0  0
  3 38  1  0  0  0  0
  4  5  1  0  0  0  0
  4  6  1  0  0  0  0
  4  9  1  0  0  0  0
  4 26  1  0  0  0  0
  5  7  1  0  0  0  0
  5 27  1  0  0  0  0
  5 28  1  0  0  0  0
  6  8  1  0  0  0  0
  6 29  1  0  0  0  0
  6 30  1  0  0  0  0
  7 31  1  0  0  0  0
  7 32  1  0  0  0  0
  8 33  1  0  0  0  0
  8 34  1  0  0  0  0
  9 11  1  0  0  0  0
 10 12  1  0  0  0  0
 10 35  1  0  0  0  0
 10 36  1  0  0  0  0
 11 13  2  0  0  0  0
 11 37  1  0  0  0  0
 12 15  2  0  0  0  0
 12 16  1  0  0  0  0
 13 14  1  0  0  0  0
 14 17  1  0  0  0  0
 14 39  1  0  0  0  0
 14 40  1  0  0  0  0
 15 18  1  0  0  0  0
 15 41  1  0  0  0  0
 16 19  2  0  0  0  0
 16 42  1  0  0  0  0
 17 21  2  0  0  0  0
 17 22  1  0  0  0  0
 18 20  2  0  0  0  0
 18 43  1  0  0  0  0
 19 20  1  0  0  0  0
 19 44  1  0  0  0  0
 20 45  1  0  0  0  0
 21 23  1  0  0  0  0
 21 46  1  0  0  0  0
 22 24  2  0  0  0  0
 22 47  1  0  0  0  0
 23 25  2  0  0  0  0
 23 48  1  0  0  0  0
 24 25  1  0  0  0  0
 24 49  1  0  0  0  0
 25 50  1  0  0  0  0
M  END
> <PUBCHEM_COMPOUND_CID>
10687967

> <PUBCHEM_COMPOUND_CANONICALIZED>
1

> <PUBCHEM_CACTVS_COMPLEXITY>
379

> <PUBCHEM_CACTVS_HBOND_ACCEPTOR>
2

> <PUBCHEM_CACTVS_HBOND_DONOR>
1

> <PUBCHEM_CACTVS_ROTATABLE_BOND>
5

> <PUBCHEM_CACTVS_SUBSKEYS>
AAADceB7AAAAAAAAAAAAAAAAAAAAAWAAAAA8YIAAAAAAAAAB0AAAHAAYAAAADQjBHgQwgJNjAACiAyRiQACSBAAgAgAYuSA4ZJgIICKA0dGEpAhgmACIyAcQgMAOAAAAAAAAAAAAAAAAAAAAAAAAAAAAAA==

> <PUBCHEM_IUPAC_OPENEYE_NAME>
1-benzyl-4-(5-benzyl-1H-pyrazol-3-yl)piperidine

> <PUBCHEM_IUPAC_CAS_NAME>
1-(phenylmethyl)-4-[5-(phenylmethyl)-1H-pyrazol-3-yl]piperidine

> <PUBCHEM_IUPAC_NAME_MARKUP>
1-benzyl-4-(5-benzyl-1<I>H</I>-pyrazol-3-yl)piperidine

> <PUBCHEM_IUPAC_NAME>
1-benzyl-4-(5-benzyl-1H-pyrazol-3-yl)piperidine

> <PUBCHEM_IUPAC_SYSTEMATIC_NAME>
1-(phenylmethyl)-4-[5-(phenylmethyl)-1H-pyrazol-3-yl]piperidine

> <PUBCHEM_IUPAC_TRADITIONAL_NAME>
1-benzyl-4-(5-benzyl-1H-pyrazol-3-yl)piperidine

> <PUBCHEM_IUPAC_INCHI>
InChI=1S/C22H25N3/c1-3-7-18(8-4-1)15-21-16-22(24-23-21)20-11-13-25(14-12-20)17-19-9-5-2-6-10-19/h1-10,16,20H,11-15,17H2,(H,23,24)

> <PUBCHEM_IUPAC_INCHIKEY>
QAPWGFAFNBTWSU-UHFFFAOYSA-N

> <PUBCHEM_XLOGP3_AA>
4.3

> <PUBCHEM_EXACT_MASS>
331.204847810

> <PUBCHEM_MOLECULAR_FORMULA>
C22H25N3

> <PUBCHEM_MOLECULAR_WEIGHT>
331.5

> <PUBCHEM_OPENEYE_CAN_SMILES>
C1CN(CCC1C2=NNC(=C2)CC3=CC=CC=C3)CC4=CC=CC=C4

> <PUBCHEM_OPENEYE_ISO_SMILES>
C1CN(CCC1C2=NNC(=C2)CC3=CC=CC=C3)CC4=CC=CC=C4

> <PUBCHEM_CACTVS_TPSA>
31.9

> <PUBCHEM_MONOISOTOPIC_WEIGHT>
331.204847810

> <PUBCHEM_TOTAL_CHARGE>
0

> <PUBCHEM_HEAVY_ATOM_COUNT>
25

> <PUBCHEM_ATOM_DEF_STEREO_COUNT>
0

> <PUBCHEM_ATOM_UDEF_STEREO_COUNT>
0

> <PUBCHEM_BOND_DEF_STEREO_COUNT>
0

> <PUBCHEM_BOND_UDEF_STEREO_COUNT>
0

> <PUBCHEM_ISOTOPIC_ATOM_COUNT>
0

> <PUBCHEM_COMPONENT_COUNT>
1

> <PUBCHEM_CACTVS_TAUTO_COUNT>
-1

> <PUBCHEM_COORDINATE_TYPE>
1
5
255

> <PUBCHEM_BONDANNOTATIONS>
11  13  8
12  15  8
12  16  8
15  18  8
16  19  8
17  21  8
17  22  8
18  20  8
19  20  8
2  3  8
2  9  8
21  23  8
22  24  8
23  25  8
24  25  8
3  13  8
9  11  8

$$$$
