10081286
  -OEChem-09292321582D

 26 27  0     0  0  0  0  0  0999 V2000
    3.4030   -2.7500    0.0000 O   0  0  0  0  0  0  0  0  0  0  0  0
    6.7988   -0.7500    0.0000 O   0  0  0  0  0  0  0  0  0  0  0  0
    5.2152   -1.5547    0.0000 N   0  0  0  0  0  0  0  0  0  0  0  0
    2.5369    2.7500    0.0000 N   0  0  0  0  0  0  0  0  0  0  0  0
    4.2690   -0.2500    0.0000 C   0  0  0  0  0  0  0  0  0  0  0  0
    3.4030    0.2500    0.0000 C   0  0  0  0  0  0  0  0  0  0  0  0
    5.2152    0.0547    0.0000 C   0  0  0  0  0  0  0  0  0  0  0  0
    4.2690   -1.2500    0.0000 C   0  0  0  0  0  0  0  0  0  0  0  0
    3.4030    1.2500    0.0000 C   0  0  0  0  0  0  0  0  0  0  0  0
    5.7988   -0.7500    0.0000 C   0  0  0  0  0  0  0  0  0  0  0  0
    2.5369   -0.2500    0.0000 C   0  0  0  0  0  0  0  0  0  0  0  0
    3.4030   -1.7500    0.0000 C   0  0  0  0  0  0  0  0  0  0  0  0
    2.5369    1.7500    0.0000 C   0  0  0  0  0  0  0  0  0  0  0  0
    2.5369   -1.2500    0.0000 C   0  0  0  0  0  0  0  0  0  0  0  0
    5.7526    0.3640    0.0000 H   0  0  0  0  0  0  0  0  0  0  0  0
    4.9642    0.6216    0.0000 H   0  0  0  0  0  0  0  0  0  0  0  0
    4.0135    1.1423    0.0000 H   0  0  0  0  0  0  0  0  0  0  0  0
    3.6150    1.8326    0.0000 H   0  0  0  0  0  0  0  0  0  0  0  0
    5.4078   -2.1440    0.0000 H   0  0  0  0  0  0  0  0  0  0  0  0
    2.0000    0.0600    0.0000 H   0  0  0  0  0  0  0  0  0  0  0  0
    1.9264    1.8577    0.0000 H   0  0  0  0  0  0  0  0  0  0  0  0
    2.3249    1.1674    0.0000 H   0  0  0  0  0  0  0  0  0  0  0  0
    2.0000   -1.5600    0.0000 H   0  0  0  0  0  0  0  0  0  0  0  0
    2.0000    3.0600    0.0000 H   0  0  0  0  0  0  0  0  0  0  0  0
    3.0739    3.0600    0.0000 H   0  0  0  0  0  0  0  0  0  0  0  0
    2.8660   -3.0600    0.0000 H   0  0  0  0  0  0  0  0  0  0  0  0
  1 12  1  0  0  0  0
  1 26  1  0  0  0  0
  2 10  2  0  0  0  0
  3  8  1  0  0  0  0
  3 10  1  0  0  0  0
  3 19  1  0  0  0  0
  4 13  1  0  0  0  0
  4 24  1  0  0  0  0
  4 25  1  0  0  0  0
  5  6  2  0  0  0  0
  5  7  1  0  0  0  0
  5  8  1  0  0  0  0
  6  9  1  0  0  0  0
  6 11  1  0  0  0  0
  7 10  1  0  0  0  0
  7 15  1  0  0  0  0
  7 16  1  0  0  0  0
  8 12  2  0  0  0  0
  9 13  1  0  0  0  0
  9 17  1  0  0  0  0
  9 18  1  0  0  0  0
 11 14  2  0  0  0  0
 11 20  1  0  0  0  0
 12 14  1  0  0  0  0
 13 21  1  0  0  0  0
 13 22  1  0  0  0  0
 14 23  1  0  0  0  0
M  END
> <PUBCHEM_COMPOUND_CID>
10081286

> <PUBCHEM_COMPOUND_CANONICALIZED>
1

> <PUBCHEM_CACTVS_COMPLEXITY>
232

> <PUBCHEM_CACTVS_HBOND_ACCEPTOR>
3

> <PUBCHEM_CACTVS_HBOND_DONOR>
3

> <PUBCHEM_CACTVS_ROTATABLE_BOND>
2

> <PUBCHEM_CACTVS_SUBSKEYS>
AAADccBzMAAAAAAAAAAAAAAAAAAAAWAAAAAwAAAAAAAAAFgBAAAAHgAQCAAADAzBmAQwxoLAAgCIAiVSUACCAAAhIAAIiIEHTIgKJjLSlZOEcAhk1BHY2Aec3LDOoAABQAASEABAAAKAACQgAAAAAAAAAA==

> <PUBCHEM_IUPAC_OPENEYE_NAME>
4-(2-aminoethyl)-7-hydroxy-indolin-2-one

> <PUBCHEM_IUPAC_CAS_NAME>
4-(2-aminoethyl)-7-hydroxy-1,3-dihydroindol-2-one

> <PUBCHEM_IUPAC_NAME_MARKUP>
4-(2-aminoethyl)-7-hydroxy-1,3-dihydroindol-2-one

> <PUBCHEM_IUPAC_NAME>
4-(2-aminoethyl)-7-hydroxy-1,3-dihydroindol-2-one

> <PUBCHEM_IUPAC_SYSTEMATIC_NAME>
4-(2-azanylethyl)-7-oxidanyl-1,3-dihydroindol-2-one

> <PUBCHEM_IUPAC_TRADITIONAL_NAME>
4-(2-aminoethyl)-7-hydroxy-oxindole

> <PUBCHEM_IUPAC_INCHI>
InChI=1S/C10H12N2O2/c11-4-3-6-1-2-8(13)10-7(6)5-9(14)12-10/h1-2,13H,3-5,11H2,(H,12,14)

> <PUBCHEM_IUPAC_INCHIKEY>
ZAHNXSYMXOCYFR-UHFFFAOYSA-N

> <PUBCHEM_XLOGP3_AA>
-0.3

> <PUBCHEM_EXACT_MASS>
192.089877630

> <PUBCHEM_MOLECULAR_FORMULA>
C10H12N2O2

> <PUBCHEM_MOLECULAR_WEIGHT>
192.21

> <PUBCHEM_OPENEYE_CAN_SMILES>
C1C2=C(C=CC(=C2NC1=O)O)CCN

> <PUBCHEM_OPENEYE_ISO_SMILES>
C1C2=C(C=CC(=C2NC1=O)O)CCN

> <PUBCHEM_CACTVS_TPSA>
75.4

> <PUBCHEM_MONOISOTOPIC_WEIGHT>
192.089877630

> <PUBCHEM_TOTAL_CHARGE>
0

> <PUBCHEM_HEAVY_ATOM_COUNT>
14

> <PUBCHEM_ATOM_DEF_STEREO_COUNT>
0

> <PUBCHEM_ATOM_UDEF_STEREO_COUNT>
0

> <PUBCHEM_BOND_DEF_STEREO_COUNT>
0

> <PUBCHEM_BOND_UDEF_STEREO_COUNT>
0

> <PUBCHEM_ISOTOPIC_ATOM_COUNT>
0

> <PUBCHEM_COMPONENT_COUNT>
1

> <PUBCHEM_CACTVS_TAUTO_COUNT>
-1

> <PUBCHEM_COORDINATE_TYPE>
1
5
255

> <PUBCHEM_BONDANNOTATIONS>
11  14  8
12  14  8
5  6  8
5  8  8
6  11  8
8  12  8

$$$$
