44350835
  -OEChem-09292322122D

 69 71  0     0  0  0  0  0  0999 V2000
    9.7504    2.6200    0.0000 O   0  0  0  0  0  0  0  0  0  0  0  0
    8.0184    9.6200    0.0000 O   0  0  0  0  0  0  0  0  0  0  0  0
    3.1350    6.6373    0.0000 O   0  0  0  0  0  0  0  0  0  0  0  0
    0.5369    7.1373    0.0000 O   0  0  0  0  0  0  0  0  0  0  0  0
    2.2690    8.1373    0.0000 O   0  0  0  0  0  0  0  0  0  0  0  0
    1.4030    5.6373    0.0000 O   0  0  0  0  0  0  0  0  0  0  0  0
   11.4825    5.6200    0.0000 N   0  0  0  0  0  0  0  0  0  0  0  0
   11.4825    3.6200    0.0000 N   0  0  0  0  0  0  0  0  0  0  0  0
    9.7504    9.6200    0.0000 N   0  0  0  0  0  0  0  0  0  0  0  0
    9.7504   11.6200    0.0000 N   0  0  0  0  0  0  0  0  0  0  0  0
   12.3485    5.1200    0.0000 C   0  0  0  0  0  0  0  0  0  0  0  0
   10.6164    5.1200    0.0000 C   0  0  0  0  0  0  0  0  0  0  0  0
   12.3485    4.1200    0.0000 C   0  0  0  0  0  0  0  0  0  0  0  0
   10.6164    4.1200    0.0000 C   0  0  0  0  0  0  0  0  0  0  0  0
   11.4825    6.6200    0.0000 C   0  0  0  0  0  0  0  0  0  0  0  0
   10.6164    7.1200    0.0000 C   0  0  0  0  0  0  0  0  0  0  0  0
   11.4825    2.6200    0.0000 C   0  0  0  0  0  0  0  0  0  0  0  0
   10.6164    8.1200    0.0000 C   0  0  0  0  0  0  0  0  0  0  0  0
    9.7504    8.6200    0.0000 C   0  0  0  0  0  0  0  0  0  0  0  0
   10.6164    2.1200    0.0000 C   0  0  0  0  0  0  0  0  0  0  0  0
   12.3485    2.1200    0.0000 C   0  0  0  0  0  0  0  0  0  0  0  0
   10.6164    1.1200    0.0000 C   0  0  0  0  0  0  0  0  0  0  0  0
   12.3485    1.1200    0.0000 C   0  0  0  0  0  0  0  0  0  0  0  0
   11.4825    0.6200    0.0000 C   0  0  0  0  0  0  0  0  0  0  0  0
    8.8844   10.1200    0.0000 C   0  0  0  0  0  0  0  0  0  0  0  0
    8.8844    2.1200    0.0000 C   0  0  0  0  0  0  0  0  0  0  0  0
    8.8844   11.1200    0.0000 C   0  0  0  0  0  0  0  0  0  0  0  0
    8.0184   11.6200    0.0000 C   0  0  0  0  0  0  0  0  0  0  0  0
    8.0184   12.6200    0.0000 C   0  0  0  0  0  0  0  0  0  0  0  0
    7.1244   11.0853    0.0000 C   0  0  0  0  0  0  0  0  0  0  0  0
    8.8844   13.1200    0.0000 C   0  0  0  0  0  0  0  0  0  0  0  0
    7.1244   13.1547    0.0000 C   0  0  0  0  0  0  0  0  0  0  0  0
    9.7504   12.6200    0.0000 C   0  0  0  0  0  0  0  0  0  0  0  0
    6.2184   11.5992    0.0000 C   0  0  0  0  0  0  0  0  0  0  0  0
    6.2184   12.6408    0.0000 C   0  0  0  0  0  0  0  0  0  0  0  0
    2.2690    7.1373    0.0000 C   0  0  0  0  0  0  0  0  0  0  0  0
    1.4030    6.6373    0.0000 C   0  0  0  0  0  0  0  0  0  0  0  0
   12.9591    5.0123    0.0000 H   0  0  0  0  0  0  0  0  0  0  0  0
   12.5605    5.7026    0.0000 H   0  0  0  0  0  0  0  0  0  0  0  0
   10.4044    5.7026    0.0000 H   0  0  0  0  0  0  0  0  0  0  0  0
   10.0059    5.0123    0.0000 H   0  0  0  0  0  0  0  0  0  0  0  0
   12.5605    3.5374    0.0000 H   0  0  0  0  0  0  0  0  0  0  0  0
   12.9591    4.2277    0.0000 H   0  0  0  0  0  0  0  0  0  0  0  0
   10.0059    4.2277    0.0000 H   0  0  0  0  0  0  0  0  0  0  0  0
   10.4044    3.5374    0.0000 H   0  0  0  0  0  0  0  0  0  0  0  0
   12.0931    6.5123    0.0000 H   0  0  0  0  0  0  0  0  0  0  0  0
   11.6945    7.2026    0.0000 H   0  0  0  0  0  0  0  0  0  0  0  0
   10.0059    7.2277    0.0000 H   0  0  0  0  0  0  0  0  0  0  0  0
   10.4044    6.5374    0.0000 H   0  0  0  0  0  0  0  0  0  0  0  0
   11.2270    8.0123    0.0000 H   0  0  0  0  0  0  0  0  0  0  0  0
   10.8285    8.7026    0.0000 H   0  0  0  0  0  0  0  0  0  0  0  0
    9.1398    8.7277    0.0000 H   0  0  0  0  0  0  0  0  0  0  0  0
    9.5384    8.0374    0.0000 H   0  0  0  0  0  0  0  0  0  0  0  0
   12.8854    2.4300    0.0000 H   0  0  0  0  0  0  0  0  0  0  0  0
   10.0795    0.8100    0.0000 H   0  0  0  0  0  0  0  0  0  0  0  0
   12.8854    0.8100    0.0000 H   0  0  0  0  0  0  0  0  0  0  0  0
   10.2874    9.9300    0.0000 H   0  0  0  0  0  0  0  0  0  0  0  0
   11.4825    0.0000    0.0000 H   0  0  0  0  0  0  0  0  0  0  0  0
    8.5744    2.6569    0.0000 H   0  0  0  0  0  0  0  0  0  0  0  0
    8.3475    1.8100    0.0000 H   0  0  0  0  0  0  0  0  0  0  0  0
    9.1944    1.5831    0.0000 H   0  0  0  0  0  0  0  0  0  0  0  0
    7.1316   10.4654    0.0000 H   0  0  0  0  0  0  0  0  0  0  0  0
    8.8844   13.7400    0.0000 H   0  0  0  0  0  0  0  0  0  0  0  0
    7.1316   13.7746    0.0000 H   0  0  0  0  0  0  0  0  0  0  0  0
   10.2874   12.9300    0.0000 H   0  0  0  0  0  0  0  0  0  0  0  0
    5.6826   11.2871    0.0000 H   0  0  0  0  0  0  0  0  0  0  0  0
    5.6826   12.9529    0.0000 H   0  0  0  0  0  0  0  0  0  0  0  0
    3.6720    6.9473    0.0000 H   0  0  0  0  0  0  0  0  0  0  0  0
    0.0000    6.8273    0.0000 H   0  0  0  0  0  0  0  0  0  0  0  0
  1 20  1  0  0  0  0
  1 26  1  0  0  0  0
  2 25  2  0  0  0  0
  3 36  1  0  0  0  0
  3 68  1  0  0  0  0
  4 37  1  0  0  0  0
  4 69  1  0  0  0  0
  5 36  2  0  0  0  0
  6 37  2  0  0  0  0
  7 11  1  0  0  0  0
  7 12  1  0  0  0  0
  7 15  1  0  0  0  0
  8 13  1  0  0  0  0
  8 14  1  0  0  0  0
  8 17  1  0  0  0  0
  9 19  1  0  0  0  0
  9 25  1  0  0  0  0
  9 57  1  0  0  0  0
 10 27  2  0  0  0  0
 10 33  1  0  0  0  0
 11 13  1  0  0  0  0
 11 38  1  0  0  0  0
 11 39  1  0  0  0  0
 12 14  1  0  0  0  0
 12 40  1  0  0  0  0
 12 41  1  0  0  0  0
 13 42  1  0  0  0  0
 13 43  1  0  0  0  0
 14 44  1  0  0  0  0
 14 45  1  0  0  0  0
 15 16  1  0  0  0  0
 15 46  1  0  0  0  0
 15 47  1  0  0  0  0
 16 18  1  0  0  0  0
 16 48  1  0  0  0  0
 16 49  1  0  0  0  0
 17 20  1  0  0  0  0
 17 21  2  0  0  0  0
 18 19  1  0  0  0  0
 18 50  1  0  0  0  0
 18 51  1  0  0  0  0
 19 52  1  0  0  0  0
 19 53  1  0  0  0  0
 20 22  2  0  0  0  0
 21 23  1  0  0  0  0
 21 54  1  0  0  0  0
 22 24  1  0  0  0  0
 22 55  1  0  0  0  0
 23 24  2  0  0  0  0
 23 56  1  0  0  0  0
 24 58  1  0  0  0  0
 25 27  1  0  0  0  0
 26 59  1  0  0  0  0
 26 60  1  0  0  0  0
 26 61  1  0  0  0  0
 27 28  1  0  0  0  0
 28 29  1  0  0  0  0
 28 30  2  0  0  0  0
 29 31  1  0  0  0  0
 29 32  2  0  0  0  0
 30 34  1  0  0  0  0
 30 62  1  0  0  0  0
 31 33  2  0  0  0  0
 31 63  1  0  0  0  0
 32 35  1  0  0  0  0
 32 64  1  0  0  0  0
 33 65  1  0  0  0  0
 34 35  2  0  0  0  0
 34 66  1  0  0  0  0
 35 67  1  0  0  0  0
 36 37  1  0  0  0  0
M  END
> <PUBCHEM_COMPOUND_CID>
44350835

> <PUBCHEM_COMPOUND_CANONICALIZED>
1

> <PUBCHEM_CACTVS_COMPLEXITY>
623

> <PUBCHEM_CACTVS_HBOND_ACCEPTOR>
9

> <PUBCHEM_CACTVS_HBOND_DONOR>
3

> <PUBCHEM_CACTVS_ROTATABLE_BOND>
9

> <PUBCHEM_CACTVS_SUBSKEYS>
AAADcfB7uAAAAAAAAAAAAAAAAAAAAAAAAAA8eIEAAAAAAACx9AAAHgAQCAAADAzBngY+ztPIFgCoAzX3XAKCiCA3IiAI2KH/bNgPZvLEtbuVMShk1hHZ6QeYyICOgAAAAAAQEAAAAAAAACAgAAAAAAAAAA==

> <PUBCHEM_IUPAC_OPENEYE_NAME>
N-[4-[4-(2-methoxyphenyl)piperazin-1-yl]butyl]isoquinoline-1-carboxamide;oxalic acid

> <PUBCHEM_IUPAC_CAS_NAME>
N-[4-[4-(2-methoxyphenyl)-1-piperazinyl]butyl]-1-isoquinolinecarboxamide;oxalic acid

> <PUBCHEM_IUPAC_NAME_MARKUP>
<I>N</I>-[4-[4-(2-methoxyphenyl)piperazin-1-yl]butyl]isoquinoline-1-carboxamide;oxalic acid

> <PUBCHEM_IUPAC_NAME>
N-[4-[4-(2-methoxyphenyl)piperazin-1-yl]butyl]isoquinoline-1-carboxamide;oxalic acid

> <PUBCHEM_IUPAC_SYSTEMATIC_NAME>
ethanedioic acid;N-[4-[4-(2-methoxyphenyl)piperazin-1-yl]butyl]isoquinoline-1-carboxamide

> <PUBCHEM_IUPAC_TRADITIONAL_NAME>
N-[4-[4-(2-methoxyphenyl)piperazino]butyl]isoquinoline-1-carboxamide;oxalic acid

> <PUBCHEM_IUPAC_INCHI>
InChI=1S/C25H30N4O2.C2H2O4/c1-31-23-11-5-4-10-22(23)29-18-16-28(17-19-29)15-7-6-13-27-25(30)24-21-9-3-2-8-20(21)12-14-26-24;3-1(4)2(5)6/h2-5,8-12,14H,6-7,13,15-19H2,1H3,(H,27,30);(H,3,4)(H,5,6)

> <PUBCHEM_IUPAC_INCHIKEY>
NDJZAYOUWMPEFL-UHFFFAOYSA-N

> <PUBCHEM_EXACT_MASS>
508.23218475

> <PUBCHEM_MOLECULAR_FORMULA>
C27H32N4O6

> <PUBCHEM_MOLECULAR_WEIGHT>
508.6

> <PUBCHEM_OPENEYE_CAN_SMILES>
COC1=CC=CC=C1N2CCN(CC2)CCCCNC(=O)C3=NC=CC4=CC=CC=C43.C(=O)(C(=O)O)O

> <PUBCHEM_OPENEYE_ISO_SMILES>
COC1=CC=CC=C1N2CCN(CC2)CCCCNC(=O)C3=NC=CC4=CC=CC=C43.C(=O)(C(=O)O)O

> <PUBCHEM_CACTVS_TPSA>
132

> <PUBCHEM_MONOISOTOPIC_WEIGHT>
508.23218475

> <PUBCHEM_TOTAL_CHARGE>
0

> <PUBCHEM_HEAVY_ATOM_COUNT>
37

> <PUBCHEM_ATOM_DEF_STEREO_COUNT>
0

> <PUBCHEM_ATOM_UDEF_STEREO_COUNT>
0

> <PUBCHEM_BOND_DEF_STEREO_COUNT>
0

> <PUBCHEM_BOND_UDEF_STEREO_COUNT>
0

> <PUBCHEM_ISOTOPIC_ATOM_COUNT>
0

> <PUBCHEM_COMPONENT_COUNT>
2

> <PUBCHEM_CACTVS_TAUTO_COUNT>
-1

> <PUBCHEM_COORDINATE_TYPE>
1
5
255

> <PUBCHEM_BONDANNOTATIONS>
10  27  8
10  33  8
17  20  8
17  21  8
20  22  8
21  23  8
22  24  8
23  24  8
27  28  8
28  29  8
28  30  8
29  31  8
29  32  8
30  34  8
31  33  8
32  35  8
34  35  8

$$$$
