168289323
  -OEChem-09292322442D

 82 87  0     1  0  0  0  0  0999 V2000
   12.4099    2.8754    0.0000 F   0  0  0  0  0  0  0  0  0  0  0  0
   11.9099    2.0094    0.0000 F   0  0  0  0  0  0  0  0  0  0  0  0
    8.0279    1.8000    0.0000 F   0  0  0  0  0  0  0  0  0  0  0  0
    8.2704    2.9503    0.0000 F   0  0  0  0  0  0  0  0  0  0  0  0
    4.9872   -6.0896    0.0000 O   0  0  0  0  0  0  0  0  0  0  0  0
   10.5438    2.3754    0.0000 N   0  0  0  0  0  0  0  0  0  0  0  0
    9.6778    2.8754    0.0000 N   0  0  3  0  0  0  0  0  0  0  0  0
   11.4099    3.8754    0.0000 N   0  3  0  0  0  0  0  0  0  0  0  0
    9.3459    1.3005    0.0000 N   0  3  0  0  0  0  0  0  0  0  0  0
    4.6680   -2.6402    0.0000 N   0  0  0  0  0  0  0  0  0  0  0  0
    3.8319   -4.4570    0.0000 N   0  0  0  0  0  0  0  0  0  0  0  0
    7.9136    0.2694    0.0000 N   0  0  0  0  0  0  0  0  0  0  0  0
   10.5438    4.3754    0.0000 C   0  0  0  0  0  0  0  0  0  0  0  0
   10.3346    1.4036    0.0000 C   0  0  0  0  0  0  0  0  0  0  0  0
    9.6778    3.8754    0.0000 C   0  0  0  0  0  0  0  0  0  0  0  0
   12.1469    4.5425    0.0000 C   0  0  0  0  0  0  0  0  0  0  0  0
   10.7530    5.3472    0.0000 C   0  0  0  0  0  0  0  0  0  0  0  0
   11.7418    5.4502    0.0000 C   0  0  0  0  0  0  0  0  0  0  0  0
    8.9094    0.3615    0.0000 C   0  0  0  0  0  0  0  0  0  0  0  0
    3.6722   -2.7324    0.0000 C   0  0  0  0  0  0  0  0  0  0  0  0
    5.2457   -3.4565    0.0000 C   0  0  0  0  0  0  0  0  0  0  0  0
    5.0860   -1.7318    0.0000 C   0  0  0  0  0  0  0  0  0  0  0  0
    3.2542   -3.6408    0.0000 C   0  0  0  0  0  0  0  0  0  0  0  0
    4.8276   -4.3649    0.0000 C   0  0  0  0  0  0  0  0  0  0  0  0
    6.0818   -1.6396    0.0000 C   0  0  0  0  0  0  0  0  0  0  0  0
   10.9554    0.5748    0.0000 C   0  0  0  0  0  0  0  0  0  0  0  0
   12.2418    6.3163    0.0000 C   0  0  0  0  0  0  0  0  0  0  0  0
    6.4998   -0.7312    0.0000 C   0  0  0  0  0  0  0  0  0  0  0  0
    7.4956   -0.6390    0.0000 C   0  0  0  0  0  0  0  0  0  0  0  0
   13.1254    4.3362    0.0000 C   0  0  0  0  0  0  0  0  0  0  0  0
   10.0852    6.0915    0.0000 C   0  0  0  0  0  0  0  0  0  0  0  0
    9.5108   -0.4814    0.0000 C   0  0  0  0  0  0  0  0  0  0  0  0
   10.5407   -0.3740    0.0000 C   0  0  0  0  0  0  0  0  0  0  0  0
    3.4138   -5.3655    0.0000 C   0  0  0  0  0  0  0  0  0  0  0  0
   11.7418    7.1823    0.0000 C   0  0  0  0  0  0  0  0  0  0  0  0
    3.9915   -6.1817    0.0000 C   0  0  0  0  0  0  0  0  0  0  0  0
    2.4181   -5.4576    0.0000 C   0  0  0  0  0  0  0  0  0  0  0  0
    3.5734   -7.0901    0.0000 C   0  0  0  0  0  0  0  0  0  0  0  0
    2.0000   -6.3660    0.0000 C   0  0  0  0  0  0  0  0  0  0  0  0
    2.5777   -7.1823    0.0000 C   0  0  0  0  0  0  0  0  0  0  0  0
    5.5649   -6.9058    0.0000 C   0  0  0  0  0  0  0  0  0  0  0  0
   11.4099    2.8754    0.0000 B   0  5  0  0  0  0  0  0  0  0  0  0
    8.9408    2.2083    0.0000 B   0  5  0  0  0  0  0  0  0  0  0  0
    9.1409    4.1854    0.0000 H   0  0  0  0  0  0  0  0  0  0  0  0
    3.7232   -2.1144    0.0000 H   0  0  0  0  0  0  0  0  0  0  0  0
    3.0726   -2.5749    0.0000 H   0  0  0  0  0  0  0  0  0  0  0  0
    5.7553   -3.8095    0.0000 H   0  0  0  0  0  0  0  0  0  0  0  0
    5.6819   -3.0158    0.0000 H   0  0  0  0  0  0  0  0  0  0  0  0
    5.1370   -1.1139    0.0000 H   0  0  0  0  0  0  0  0  0  0  0  0
    4.4864   -1.5743    0.0000 H   0  0  0  0  0  0  0  0  0  0  0  0
    2.7445   -3.2877    0.0000 H   0  0  0  0  0  0  0  0  0  0  0  0
    2.8180   -4.0814    0.0000 H   0  0  0  0  0  0  0  0  0  0  0  0
    4.7767   -4.9828    0.0000 H   0  0  0  0  0  0  0  0  0  0  0  0
    5.4273   -4.5223    0.0000 H   0  0  0  0  0  0  0  0  0  0  0  0
    6.0308   -2.2575    0.0000 H   0  0  0  0  0  0  0  0  0  0  0  0
    6.6815   -1.7971    0.0000 H   0  0  0  0  0  0  0  0  0  0  0  0
   11.5713    0.6462    0.0000 H   0  0  0  0  0  0  0  0  0  0  0  0
    6.5508   -0.1133    0.0000 H   0  0  0  0  0  0  0  0  0  0  0  0
    5.9002   -0.5737    0.0000 H   0  0  0  0  0  0  0  0  0  0  0  0
   12.7167    5.9177    0.0000 H   0  0  0  0  0  0  0  0  0  0  0  0
   12.7167    6.7148    0.0000 H   0  0  0  0  0  0  0  0  0  0  0  0
    7.4447   -1.2569    0.0000 H   0  0  0  0  0  0  0  0  0  0  0  0
    8.0953   -0.7965    0.0000 H   0  0  0  0  0  0  0  0  0  0  0  0
    7.5555    0.7755    0.0000 H   0  0  0  0  0  0  0  0  0  0  0  0
   12.9975    3.7296    0.0000 H   0  0  0  0  0  0  0  0  0  0  0  0
   13.7320    4.2084    0.0000 H   0  0  0  0  0  0  0  0  0  0  0  0
   13.2532    4.9429    0.0000 H   0  0  0  0  0  0  0  0  0  0  0  0
   10.5467    6.5056    0.0000 H   0  0  0  0  0  0  0  0  0  0  0  0
    9.6711    6.5530    0.0000 H   0  0  0  0  0  0  0  0  0  0  0  0
    9.6237    5.6774    0.0000 H   0  0  0  0  0  0  0  0  0  0  0  0
    9.2560   -1.0466    0.0000 H   0  0  0  0  0  0  0  0  0  0  0  0
   10.9066   -0.8745    0.0000 H   0  0  0  0  0  0  0  0  0  0  0  0
   12.2787    7.4923    0.0000 H   0  0  0  0  0  0  0  0  0  0  0  0
   11.4318    7.7192    0.0000 H   0  0  0  0  0  0  0  0  0  0  0  0
   11.2048    6.8723    0.0000 H   0  0  0  0  0  0  0  0  0  0  0  0
    2.0599   -4.9515    0.0000 H   0  0  0  0  0  0  0  0  0  0  0  0
    3.9316   -7.5962    0.0000 H   0  0  0  0  0  0  0  0  0  0  0  0
    1.3826   -6.4232    0.0000 H   0  0  0  0  0  0  0  0  0  0  0  0
    2.3185   -7.7455    0.0000 H   0  0  0  0  0  0  0  0  0  0  0  0
    5.0588   -7.2640    0.0000 H   0  0  0  0  0  0  0  0  0  0  0  0
    5.9231   -7.4119    0.0000 H   0  0  0  0  0  0  0  0  0  0  0  0
    6.0710   -6.5476    0.0000 H   0  0  0  0  0  0  0  0  0  0  0  0
  1 42  1  0  0  0  0
  2 42  1  0  0  0  0
  3 43  1  0  0  0  0
  4 43  1  0  0  0  0
  5 36  1  0  0  0  0
  5 41  1  0  0  0  0
  6  7  1  0  0  0  0
  6 14  1  0  0  0  0
  6 42  1  0  0  0  0
  7 15  1  0  0  0  0
  7 43  1  0  0  0  0
  8 13  1  0  0  0  0
  8 16  2  0  0  0  0
  8 42  1  0  0  0  0
  9 14  1  0  0  0  0
  9 19  2  0  0  0  0
  9 43  1  0  0  0  0
 10 20  1  0  0  0  0
 10 21  1  0  0  0  0
 10 22  1  0  0  0  0
 11 23  1  0  0  0  0
 11 24  1  0  0  0  0
 11 34  1  0  0  0  0
 12 19  1  0  0  0  0
 12 29  1  0  0  0  0
 12 64  1  0  0  0  0
 13 15  2  0  0  0  0
 13 17  1  0  0  0  0
 14 26  2  0  0  0  0
 15 44  1  0  0  0  0
 16 18  1  0  0  0  0
 16 30  1  0  0  0  0
 17 18  2  0  0  0  0
 17 31  1  0  0  0  0
 18 27  1  0  0  0  0
 19 32  1  0  0  0  0
 20 23  1  0  0  0  0
 20 45  1  0  0  0  0
 20 46  1  0  0  0  0
 21 24  1  0  0  0  0
 21 47  1  0  0  0  0
 21 48  1  0  0  0  0
 22 25  1  0  0  0  0
 22 49  1  0  0  0  0
 22 50  1  0  0  0  0
 23 51  1  0  0  0  0
 23 52  1  0  0  0  0
 24 53  1  0  0  0  0
 24 54  1  0  0  0  0
 25 28  1  0  0  0  0
 25 55  1  0  0  0  0
 25 56  1  0  0  0  0
 26 33  1  0  0  0  0
 26 57  1  0  0  0  0
 27 35  1  0  0  0  0
 27 60  1  0  0  0  0
 27 61  1  0  0  0  0
 28 29  1  0  0  0  0
 28 58  1  0  0  0  0
 28 59  1  0  0  0  0
 29 62  1  0  0  0  0
 29 63  1  0  0  0  0
 30 65  1  0  0  0  0
 30 66  1  0  0  0  0
 30 67  1  0  0  0  0
 31 68  1  0  0  0  0
 31 69  1  0  0  0  0
 31 70  1  0  0  0  0
 32 33  2  0  0  0  0
 32 71  1  0  0  0  0
 33 72  1  0  0  0  0
 34 36  1  0  0  0  0
 34 37  2  0  0  0  0
 35 73  1  0  0  0  0
 35 74  1  0  0  0  0
 35 75  1  0  0  0  0
 36 38  2  0  0  0  0
 37 39  1  0  0  0  0
 37 76  1  0  0  0  0
 38 40  1  0  0  0  0
 38 77  1  0  0  0  0
 39 40  2  0  0  0  0
 39 78  1  0  0  0  0
 40 79  1  0  0  0  0
 41 80  1  0  0  0  0
 41 81  1  0  0  0  0
 41 82  1  0  0  0  0
M  CHG  4   8   1   9   1  42  -1  43  -1
M  END
> <PUBCHEM_COMPOUND_CID>
168289323

> <PUBCHEM_COMPOUND_CANONICALIZED>
1

> <PUBCHEM_CACTVS_COMPLEXITY>
1150

> <PUBCHEM_CACTVS_HBOND_ACCEPTOR>
12

> <PUBCHEM_CACTVS_HBOND_DONOR>
1

> <PUBCHEM_CACTVS_ROTATABLE_BOND>
9

> <PUBCHEM_CACTVS_SUBSKEYS>
AAADcfN7ocAAAAAAAAAAAAAAAAAAAWIAAAA8WIEAAAAAAFgBwAAUHgAYAAAADAzBkgYz9pPIFACgAyZmZACCjCkhIiAdmKA/bJiOZuLEuZuVMChs0BPY6CeQQAAAAAAAAAAAEAAAAAAAAAAgAAAAAAAAAA==

> <PUBCHEM_IUPAC_OPENEYE_NAME>
13-ethyl-8,8,16,16-tetrafluoro-N-[4-[4-(2-methoxyphenyl)piperazin-1-yl]butyl]-12,14-dimethyl-1,9-diaza-7,15-diazonia-8,16-diboranuidatetracyclo[7.7.0.02,7.011,15]hexadeca-2,4,6,10,12,14-hexaen-6-amine

> <PUBCHEM_IUPAC_CAS_NAME>
13-ethyl-8,8,16,16-tetrafluoro-N-[4-[4-(2-methoxyphenyl)-1-piperazinyl]butyl]-12,14-dimethyl-1,9-diaza-7,15-diazonia-8,16-diboranuidatetracyclo[7.7.0.02,7.011,15]hexadeca-2,4,6,10,12,14-hexaen-6-amine

> <PUBCHEM_IUPAC_NAME_MARKUP>
13-ethyl-8,8,16,16-tetrafluoro-<I>N</I>-[4-[4-(2-methoxyphenyl)piperazin-1-yl]butyl]-12,14-dimethyl-1,9-diaza-7,15-diazonia-8,16-diboranuidatetracyclo[7.7.0.0<SUP>2,7</SUP>.0<SUP>11,15</SUP>]hexadeca-2,4,6,10,12,14-hexaen-6-amine

> <PUBCHEM_IUPAC_NAME>
13-ethyl-8,8,16,16-tetrafluoro-N-[4-[4-(2-methoxyphenyl)piperazin-1-yl]butyl]-12,14-dimethyl-1,9-diaza-7,15-diazonia-8,16-diboranuidatetracyclo[7.7.0.02,7.011,15]hexadeca-2,4,6,10,12,14-hexaen-6-amine

> <PUBCHEM_IUPAC_SYSTEMATIC_NAME>
13-ethyl-8,8,16,16-tetrakis(fluoranyl)-N-[4-[4-(2-methoxyphenyl)piperazin-1-yl]butyl]-12,14-dimethyl-1,9-diaza-7,15-diazonia-8,16-diboranuidatetracyclo[7.7.0.02,7.011,15]hexadeca-2,4,6,10,12,14-hexaen-6-amine

> <PUBCHEM_IUPAC_TRADITIONAL_NAME>
(13-ethyl-8,8,16,16-tetrafluoro-12,14-dimethyl-1,9-diaza-7,15-diazonia-8,16-diboranuidatetracyclo[7.7.0.02,7.011,15]hexadeca-2,4,6,10,12,14-hexaen-6-yl)-[4-[4-(2-methoxyphenyl)piperazino]butyl]amine

> <PUBCHEM_IUPAC_INCHI>
InChI=1S/C29H39B2F4N7O/c1-5-24-22(2)26-21-39-30(32,33)41-28(13-10-14-29(41)42(39)31(34,35)40(26)23(24)3)36-15-8-9-16-37-17-19-38(20-18-37)25-11-6-7-12-27(25)43-4/h6-7,10-14,21,36H,5,8-9,15-20H2,1-4H3

> <PUBCHEM_IUPAC_INCHIKEY>
NRDVHLCWWMDXNA-UHFFFAOYSA-N

> <PUBCHEM_EXACT_MASS>
599.3338319

> <PUBCHEM_MOLECULAR_FORMULA>
C29H39B2F4N7O

> <PUBCHEM_MOLECULAR_WEIGHT>
599.3

> <PUBCHEM_OPENEYE_CAN_SMILES>
[B-]1(N2C=C3C(=C(C(=[N+]3[B-](N2C4=CC=CC(=[N+]41)NCCCCN5CCN(CC5)C6=CC=CC=C6OC)(F)F)C)CC)C)(F)F

> <PUBCHEM_OPENEYE_ISO_SMILES>
[B-]1(N2C=C3C(=C(C(=[N+]3[B-](N2C4=CC=CC(=[N+]41)NCCCCN5CCN(CC5)C6=CC=CC=C6OC)(F)F)C)CC)C)(F)F

> <PUBCHEM_CACTVS_TPSA>
41.1

> <PUBCHEM_MONOISOTOPIC_WEIGHT>
599.3338319

> <PUBCHEM_TOTAL_CHARGE>
0

> <PUBCHEM_HEAVY_ATOM_COUNT>
43

> <PUBCHEM_ATOM_DEF_STEREO_COUNT>
0

> <PUBCHEM_ATOM_UDEF_STEREO_COUNT>
0

> <PUBCHEM_BOND_DEF_STEREO_COUNT>
0

> <PUBCHEM_BOND_UDEF_STEREO_COUNT>
0

> <PUBCHEM_ISOTOPIC_ATOM_COUNT>
0

> <PUBCHEM_COMPONENT_COUNT>
1

> <PUBCHEM_CACTVS_TAUTO_COUNT>
-1

> <PUBCHEM_COORDINATE_TYPE>
1
5
255

> <PUBCHEM_BONDANNOTATIONS>
14  26  8
19  32  8
26  33  8
32  33  8
34  36  8
34  37  8
36  38  8
37  39  8
38  40  8
39  40  8
9  14  8
9  19  8

$$$$
