121304414
  -OEChem-09292322382D

 67 71  0     1  0  0  0  0  0999 V2000
    4.8198    0.2791    0.0000 S   0  0  0  0  0  0  0  0  0  0  0  0
   10.5121   -8.0709    0.0000 F   0  0  0  0  0  0  0  0  0  0  0  0
    9.1460   -8.4369    0.0000 F   0  0  0  0  0  0  0  0  0  0  0  0
   10.1460   -6.7049    0.0000 F   0  0  0  0  0  0  0  0  0  0  0  0
    2.0000    6.6269    0.0000 O   0  0  0  0  0  0  0  0  0  0  0  0
    5.1819   -3.1660    0.0000 N   0  0  3  0  0  0  0  0  0  0  0  0
    4.5411    2.0391    0.0000 N   0  0  0  0  0  0  0  0  0  0  0  0
    3.2320    1.0881    0.0000 N   0  0  0  0  0  0  0  0  0  0  0  0
    2.9230    2.0391    0.0000 N   0  0  0  0  0  0  0  0  0  0  0  0
    2.8660    8.1269    0.0000 N   0  0  0  0  0  0  0  0  0  0  0  0
    5.6819   -4.7049    0.0000 C   0  0  2  0  0  0  0  0  0  0  0  0
    6.1819   -5.5709    0.0000 C   0  0  2  0  0  0  0  0  0  0  0  0
    5.1819   -5.5709    0.0000 C   0  0  0  0  0  0  0  0  0  0  0  0
    6.4910   -4.1171    0.0000 C   0  0  0  0  0  0  0  0  0  0  0  0
    4.8729   -4.1171    0.0000 C   0  0  0  0  0  0  0  0  0  0  0  0
    6.1819   -3.1660    0.0000 C   0  0  0  0  0  0  0  0  0  0  0  0
    7.0480   -6.0709    0.0000 C   0  0  0  0  0  0  0  0  0  0  0  0
    4.5942   -2.3570    0.0000 C   0  0  0  0  0  0  0  0  0  0  0  0
    7.9140   -5.5709    0.0000 C   0  0  0  0  0  0  0  0  0  0  0  0
    7.0480   -7.0709    0.0000 C   0  0  0  0  0  0  0  0  0  0  0  0
    5.0009   -1.4435    0.0000 C   0  0  0  0  0  0  0  0  0  0  0  0
    8.7800   -6.0709    0.0000 C   0  0  0  0  0  0  0  0  0  0  0  0
    7.9140   -7.5709    0.0000 C   0  0  0  0  0  0  0  0  0  0  0  0
    8.7800   -7.0709    0.0000 C   0  0  0  0  0  0  0  0  0  0  0  0
    4.4131   -0.6345    0.0000 C   0  0  0  0  0  0  0  0  0  0  0  0
    9.6460   -7.5709    0.0000 C   0  0  0  0  0  0  0  0  0  0  0  0
    4.2320    1.0881    0.0000 C   0  0  0  0  0  0  0  0  0  0  0  0
    3.7320    2.6269    0.0000 C   0  0  0  0  0  0  0  0  0  0  0  0
    5.4921    2.3482    0.0000 C   0  0  0  0  0  0  0  0  0  0  0  0
    3.7320    3.6269    0.0000 C   0  0  0  0  0  0  0  0  0  0  0  0
    4.5981    4.1269    0.0000 C   0  0  0  0  0  0  0  0  0  0  0  0
    2.8660    4.1269    0.0000 C   0  0  0  0  0  0  0  0  0  0  0  0
    4.5981    5.1269    0.0000 C   0  0  0  0  0  0  0  0  0  0  0  0
    2.8660    5.1269    0.0000 C   0  0  0  0  0  0  0  0  0  0  0  0
    3.7320    5.6269    0.0000 C   0  0  0  0  0  0  0  0  0  0  0  0
    3.7320    6.6269    0.0000 C   0  0  0  0  0  0  0  0  0  0  0  0
    2.8660    7.1269    0.0000 C   0  0  0  0  0  0  0  0  0  0  0  0
    6.0215   -6.1698    0.0000 H   0  0  0  0  0  0  0  0  0  0  0  0
    4.5993   -5.3589    0.0000 H   0  0  0  0  0  0  0  0  0  0  0  0
    5.0743   -6.1815    0.0000 H   0  0  0  0  0  0  0  0  0  0  0  0
    6.8010   -4.6540    0.0000 H   0  0  0  0  0  0  0  0  0  0  0  0
    7.0574   -3.8649    0.0000 H   0  0  0  0  0  0  0  0  0  0  0  0
    4.3065   -3.8649    0.0000 H   0  0  0  0  0  0  0  0  0  0  0  0
    4.5629   -4.6540    0.0000 H   0  0  0  0  0  0  0  0  0  0  0  0
    6.7884   -3.0371    0.0000 H   0  0  0  0  0  0  0  0  0  0  0  0
    6.1171   -2.5494    0.0000 H   0  0  0  0  0  0  0  0  0  0  0  0
    4.0801   -2.0103    0.0000 H   0  0  0  0  0  0  0  0  0  0  0  0
    4.1635   -2.8030    0.0000 H   0  0  0  0  0  0  0  0  0  0  0  0
    7.9140   -4.9509    0.0000 H   0  0  0  0  0  0  0  0  0  0  0  0
    6.5110   -7.3809    0.0000 H   0  0  0  0  0  0  0  0  0  0  0  0
    5.5149   -1.7902    0.0000 H   0  0  0  0  0  0  0  0  0  0  0  0
    5.4316   -0.9975    0.0000 H   0  0  0  0  0  0  0  0  0  0  0  0
    9.3170   -5.7609    0.0000 H   0  0  0  0  0  0  0  0  0  0  0  0
    7.9140   -8.1909    0.0000 H   0  0  0  0  0  0  0  0  0  0  0  0
    3.8991   -0.2878    0.0000 H   0  0  0  0  0  0  0  0  0  0  0  0
    3.9824   -1.0805    0.0000 H   0  0  0  0  0  0  0  0  0  0  0  0
    5.6837    1.7585    0.0000 H   0  0  0  0  0  0  0  0  0  0  0  0
    6.0818    2.5398    0.0000 H   0  0  0  0  0  0  0  0  0  0  0  0
    5.3005    2.9378    0.0000 H   0  0  0  0  0  0  0  0  0  0  0  0
    5.1350    3.8169    0.0000 H   0  0  0  0  0  0  0  0  0  0  0  0
    2.3291    3.8169    0.0000 H   0  0  0  0  0  0  0  0  0  0  0  0
    5.1350    5.4369    0.0000 H   0  0  0  0  0  0  0  0  0  0  0  0
    2.3291    5.4369    0.0000 H   0  0  0  0  0  0  0  0  0  0  0  0
    4.3426    6.5193    0.0000 H   0  0  0  0  0  0  0  0  0  0  0  0
    3.9441    7.2096    0.0000 H   0  0  0  0  0  0  0  0  0  0  0  0
    2.3291    8.4369    0.0000 H   0  0  0  0  0  0  0  0  0  0  0  0
    3.4030    8.4369    0.0000 H   0  0  0  0  0  0  0  0  0  0  0  0
  1 25  1  0  0  0  0
  1 27  1  0  0  0  0
  2 26  1  0  0  0  0
  3 26  1  0  0  0  0
  4 26  1  0  0  0  0
  5 37  2  0  0  0  0
  6 15  1  0  0  0  0
  6 16  1  0  0  0  0
  6 18  1  0  0  0  0
  7 27  1  0  0  0  0
  7 28  1  0  0  0  0
  7 29  1  0  0  0  0
  8  9  1  0  0  0  0
  8 27  2  0  0  0  0
  9 28  2  0  0  0  0
 10 37  1  0  0  0  0
 10 66  1  0  0  0  0
 10 67  1  0  0  0  0
 11 12  1  0  0  0  0
 11 13  1  6  0  0  0
 11 14  1  0  0  0  0
 11 15  1  0  0  0  0
 12 13  1  0  0  0  0
 12 17  1  1  0  0  0
 12 38  1  0  0  0  0
 13 39  1  0  0  0  0
 13 40  1  0  0  0  0
 14 16  1  0  0  0  0
 14 41  1  0  0  0  0
 14 42  1  0  0  0  0
 15 43  1  0  0  0  0
 15 44  1  0  0  0  0
 16 45  1  0  0  0  0
 16 46  1  0  0  0  0
 17 19  2  0  0  0  0
 17 20  1  0  0  0  0
 18 21  1  0  0  0  0
 18 47  1  0  0  0  0
 18 48  1  0  0  0  0
 19 22  1  0  0  0  0
 19 49  1  0  0  0  0
 20 23  2  0  0  0  0
 20 50  1  0  0  0  0
 21 25  1  0  0  0  0
 21 51  1  0  0  0  0
 21 52  1  0  0  0  0
 22 24  2  0  0  0  0
 22 53  1  0  0  0  0
 23 24  1  0  0  0  0
 23 54  1  0  0  0  0
 24 26  1  0  0  0  0
 25 55  1  0  0  0  0
 25 56  1  0  0  0  0
 28 30  1  0  0  0  0
 29 57  1  0  0  0  0
 29 58  1  0  0  0  0
 29 59  1  0  0  0  0
 30 31  2  0  0  0  0
 30 32  1  0  0  0  0
 31 33  1  0  0  0  0
 31 60  1  0  0  0  0
 32 34  2  0  0  0  0
 32 61  1  0  0  0  0
 33 35  2  0  0  0  0
 33 62  1  0  0  0  0
 34 35  1  0  0  0  0
 34 63  1  0  0  0  0
 35 36  1  0  0  0  0
 36 37  1  0  0  0  0
 36 64  1  0  0  0  0
 36 65  1  0  0  0  0
M  END
> <PUBCHEM_COMPOUND_CID>
121304414

> <PUBCHEM_COMPOUND_CANONICALIZED>
1

> <PUBCHEM_CACTVS_COMPLEXITY>
787

> <PUBCHEM_CACTVS_HBOND_ACCEPTOR>
8

> <PUBCHEM_CACTVS_HBOND_DONOR>
1

> <PUBCHEM_CACTVS_ROTATABLE_BOND>
9

> <PUBCHEM_CACTVS_SUBSKEYS>
AAADceB7oYBAAAAAAAAAAAAAGAAAAWLAAAAwYAAAAAAAAAAB0AAAHwQYAAAADwDF2xSzEIdMEAiqAiNyNACS0AtgALAdyCEoBJiIKLKgnRGEIAhgmAKIiAcYiMCPwAAAAAAAAACAAAAAAAAAAAAAAAAAAA==

> <PUBCHEM_IUPAC_OPENEYE_NAME>
2-[4-[4-methyl-5-[3-[(2R,3S)-2-[4-(trifluoromethyl)phenyl]-5-azaspiro[2.4]heptan-5-yl]propylsulfanyl]-1,2,4-triazol-3-yl]phenyl]acetamide

> <PUBCHEM_IUPAC_CAS_NAME>
2-[4-[4-methyl-5-[3-[(2R,3S)-2-[4-(trifluoromethyl)phenyl]-5-azaspiro[2.4]heptan-5-yl]propylthio]-1,2,4-triazol-3-yl]phenyl]acetamide

> <PUBCHEM_IUPAC_NAME_MARKUP>
2-[4-[4-methyl-5-[3-[(2<I>R</I>,3<I>S</I>)-2-[4-(trifluoromethyl)phenyl]-5-azaspiro[2.4]heptan-5-yl]propylsulfanyl]-1,2,4-triazol-3-yl]phenyl]acetamide

> <PUBCHEM_IUPAC_NAME>
2-[4-[4-methyl-5-[3-[(2R,3S)-2-[4-(trifluoromethyl)phenyl]-5-azaspiro[2.4]heptan-5-yl]propylsulfanyl]-1,2,4-triazol-3-yl]phenyl]acetamide

> <PUBCHEM_IUPAC_SYSTEMATIC_NAME>
2-[4-[4-methyl-5-[3-[(2R,3S)-2-[4-(trifluoromethyl)phenyl]-5-azaspiro[2.4]heptan-5-yl]propylsulfanyl]-1,2,4-triazol-3-yl]phenyl]ethanamide

> <PUBCHEM_IUPAC_TRADITIONAL_NAME>
2-[4-[4-methyl-5-[3-[(2R,3S)-2-[4-(trifluoromethyl)phenyl]-5-azaspiro[2.4]heptan-5-yl]propylthio]-1,2,4-triazol-3-yl]phenyl]acetamide

> <PUBCHEM_IUPAC_INCHI>
InChI=1S/C27H30F3N5OS/c1-34-24(20-5-3-18(4-6-20)15-23(31)36)32-33-25(34)37-14-2-12-35-13-11-26(17-35)16-22(26)19-7-9-21(10-8-19)27(28,29)30/h3-10,22H,2,11-17H2,1H3,(H2,31,36)/t22-,26+/m1/s1

> <PUBCHEM_IUPAC_INCHIKEY>
BCTUVZJFJIFLND-GJZUVCINSA-N

> <PUBCHEM_XLOGP3_AA>
4.2

> <PUBCHEM_EXACT_MASS>
529.21231626

> <PUBCHEM_MOLECULAR_FORMULA>
C27H30F3N5OS

> <PUBCHEM_MOLECULAR_WEIGHT>
529.6

> <PUBCHEM_OPENEYE_CAN_SMILES>
CN1C(=NN=C1SCCCN2CCC3(C2)CC3C4=CC=C(C=C4)C(F)(F)F)C5=CC=C(C=C5)CC(=O)N

> <PUBCHEM_OPENEYE_ISO_SMILES>
CN1C(=NN=C1SCCCN2CC[C@@]3(C2)C[C@@H]3C4=CC=C(C=C4)C(F)(F)F)C5=CC=C(C=C5)CC(=O)N

> <PUBCHEM_CACTVS_TPSA>
102

> <PUBCHEM_MONOISOTOPIC_WEIGHT>
529.21231626

> <PUBCHEM_TOTAL_CHARGE>
0

> <PUBCHEM_HEAVY_ATOM_COUNT>
37

> <PUBCHEM_ATOM_DEF_STEREO_COUNT>
2

> <PUBCHEM_ATOM_UDEF_STEREO_COUNT>
0

> <PUBCHEM_BOND_DEF_STEREO_COUNT>
0

> <PUBCHEM_BOND_UDEF_STEREO_COUNT>
0

> <PUBCHEM_ISOTOPIC_ATOM_COUNT>
0

> <PUBCHEM_COMPONENT_COUNT>
1

> <PUBCHEM_CACTVS_TAUTO_COUNT>
-1

> <PUBCHEM_COORDINATE_TYPE>
1
5
255

> <PUBCHEM_BONDANNOTATIONS>
11  13  6
12  17  5
17  19  8
17  20  8
19  22  8
20  23  8
22  24  8
23  24  8
30  31  8
30  32  8
31  33  8
32  34  8
33  35  8
34  35  8
7  27  8
7  28  8
8  27  8
8  9  8
9  28  8

$$$$
