155195439
  -OEChem-09292322402D

 58 61  0     1  0  0  0  0  0999 V2000
    2.0116   -1.1594    0.0000 O   0  0  0  0  0  0  0  0  0  0  0  0
    8.0795   -2.6360    0.0000 O   0  0  0  0  0  0  0  0  0  0  0  0
   13.3417   -2.6118    0.0000 O   0  0  0  0  0  0  0  0  0  0  0  0
    3.7475   -2.1527    0.0000 N   0  0  3  0  0  0  0  0  0  0  0  0
    2.0000    1.8406    0.0000 N   0  0  0  0  0  0  0  0  0  0  0  0
   11.6096   -2.6118    0.0000 N   0  0  0  0  0  0  0  0  0  0  0  0
    2.8602    3.3439    0.0000 N   0  0  0  0  0  0  0  0  0  0  0  0
    2.8834   -2.6560    0.0000 C   0  0  2  0  0  0  0  0  0  0  0  0
    3.7436   -1.1527    0.0000 C   0  0  0  0  0  0  0  0  0  0  0  0
    2.8757   -0.6560    0.0000 C   0  0  2  0  0  0  0  0  0  0  0  0
    2.0154   -2.1594    0.0000 C   0  0  0  0  0  0  0  0  0  0  0  0
    4.6154   -2.6493    0.0000 C   0  0  0  0  0  0  0  0  0  0  0  0
    2.8872   -3.6560    0.0000 C   0  0  0  0  0  0  0  0  0  0  0  0
    2.8718    0.3440    0.0000 C   0  0  0  0  0  0  0  0  0  0  0  0
    5.4795   -2.1460    0.0000 C   0  0  0  0  0  0  0  0  0  0  0  0
    3.7359    0.8473    0.0000 C   0  0  0  0  0  0  0  0  0  0  0  0
    2.0038    0.8406    0.0000 C   0  0  0  0  0  0  0  0  0  0  0  0
    6.3474   -2.6427    0.0000 C   0  0  0  0  0  0  0  0  0  0  0  0
    3.7320    1.8473    0.0000 C   0  0  0  0  0  0  0  0  0  0  0  0
   11.6096   -0.6118    0.0000 C   0  0  0  0  0  0  0  0  0  0  0  0
   10.7436   -1.1118    0.0000 C   0  0  0  0  0  0  0  0  0  0  0  0
   10.7436   -2.1118    0.0000 C   0  0  0  0  0  0  0  0  0  0  0  0
    7.2115   -2.1393    0.0000 C   0  0  0  0  0  0  0  0  0  0  0  0
   12.4756   -1.1118    0.0000 C   0  0  0  0  0  0  0  0  0  0  0  0
    2.8641    2.3440    0.0000 C   0  0  0  0  0  0  0  0  0  0  0  0
    8.9436   -2.1326    0.0000 C   0  0  0  0  0  0  0  0  0  0  0  0
    9.8496   -2.6465    0.0000 C   0  0  0  0  0  0  0  0  0  0  0  0
    9.8496   -0.5772    0.0000 C   0  0  0  0  0  0  0  0  0  0  0  0
   12.4756   -2.1118    0.0000 C   0  0  0  0  0  0  0  0  0  0  0  0
    8.9436   -1.0910    0.0000 C   0  0  0  0  0  0  0  0  0  0  0  0
    3.4215   -2.9639    0.0000 H   0  0  0  0  0  0  0  0  0  0  0  0
    4.3546   -1.2580    0.0000 H   0  0  0  0  0  0  0  0  0  0  0  0
    3.9534   -0.5693    0.0000 H   0  0  0  0  0  0  0  0  0  0  0  0
    2.3375   -0.3481    0.0000 H   0  0  0  0  0  0  0  0  0  0  0  0
    1.4044   -2.0540    0.0000 H   0  0  0  0  0  0  0  0  0  0  0  0
    1.8056   -2.7428    0.0000 H   0  0  0  0  0  0  0  0  0  0  0  0
    4.2187   -3.1258    0.0000 H   0  0  0  0  0  0  0  0  0  0  0  0
    5.0158   -3.1228    0.0000 H   0  0  0  0  0  0  0  0  0  0  0  0
    2.2672   -3.6584    0.0000 H   0  0  0  0  0  0  0  0  0  0  0  0
    2.8896   -4.2760    0.0000 H   0  0  0  0  0  0  0  0  0  0  0  0
    3.5072   -3.6536    0.0000 H   0  0  0  0  0  0  0  0  0  0  0  0
    5.4771   -1.5260    0.0000 H   0  0  0  0  0  0  0  0  0  0  0  0
    4.2740    0.5394    0.0000 H   0  0  0  0  0  0  0  0  0  0  0  0
    1.4681    0.5286    0.0000 H   0  0  0  0  0  0  0  0  0  0  0  0
    6.3498   -3.2627    0.0000 H   0  0  0  0  0  0  0  0  0  0  0  0
   12.0081   -0.1369    0.0000 H   0  0  0  0  0  0  0  0  0  0  0  0
   11.2111   -0.1369    0.0000 H   0  0  0  0  0  0  0  0  0  0  0  0
    4.2678    2.1594    0.0000 H   0  0  0  0  0  0  0  0  0  0  0  0
   13.0862   -1.2195    0.0000 H   0  0  0  0  0  0  0  0  0  0  0  0
   12.6877   -0.5292    0.0000 H   0  0  0  0  0  0  0  0  0  0  0  0
    7.6082   -1.6628    0.0000 H   0  0  0  0  0  0  0  0  0  0  0  0
    6.8112   -1.6659    0.0000 H   0  0  0  0  0  0  0  0  0  0  0  0
    9.8568   -3.2665    0.0000 H   0  0  0  0  0  0  0  0  0  0  0  0
   11.6096   -3.2318    0.0000 H   0  0  0  0  0  0  0  0  0  0  0  0
    9.8568    0.0428    0.0000 H   0  0  0  0  0  0  0  0  0  0  0  0
    8.4078   -0.7790    0.0000 H   0  0  0  0  0  0  0  0  0  0  0  0
    2.3221    3.6519    0.0000 H   0  0  0  0  0  0  0  0  0  0  0  0
    3.3960    3.6560    0.0000 H   0  0  0  0  0  0  0  0  0  0  0  0
  1 10  1  0  0  0  0
  1 11  1  0  0  0  0
  2 23  1  0  0  0  0
  2 26  1  0  0  0  0
  3 29  2  0  0  0  0
  4  8  1  0  0  0  0
  4  9  1  0  0  0  0
  4 12  1  0  0  0  0
  5 17  1  0  0  0  0
  5 25  2  0  0  0  0
  6 22  1  0  0  0  0
  6 29  1  0  0  0  0
  6 54  1  0  0  0  0
  7 25  1  0  0  0  0
  7 57  1  0  0  0  0
  7 58  1  0  0  0  0
  8 11  1  0  0  0  0
  8 13  1  1  0  0  0
  8 31  1  0  0  0  0
  9 10  1  0  0  0  0
  9 32  1  0  0  0  0
  9 33  1  0  0  0  0
 10 14  1  1  0  0  0
 10 34  1  0  0  0  0
 11 35  1  0  0  0  0
 11 36  1  0  0  0  0
 12 15  1  0  0  0  0
 12 37  1  0  0  0  0
 12 38  1  0  0  0  0
 13 39  1  0  0  0  0
 13 40  1  0  0  0  0
 13 41  1  0  0  0  0
 14 16  1  0  0  0  0
 14 17  2  0  0  0  0
 15 18  2  0  0  0  0
 15 42  1  0  0  0  0
 16 19  2  0  0  0  0
 16 43  1  0  0  0  0
 17 44  1  0  0  0  0
 18 23  1  0  0  0  0
 18 45  1  0  0  0  0
 19 25  1  0  0  0  0
 19 48  1  0  0  0  0
 20 21  1  0  0  0  0
 20 24  1  0  0  0  0
 20 46  1  0  0  0  0
 20 47  1  0  0  0  0
 21 22  2  0  0  0  0
 21 28  1  0  0  0  0
 22 27  1  0  0  0  0
 23 51  1  0  0  0  0
 23 52  1  0  0  0  0
 24 29  1  0  0  0  0
 24 49  1  0  0  0  0
 24 50  1  0  0  0  0
 26 27  2  0  0  0  0
 26 30  1  0  0  0  0
 27 53  1  0  0  0  0
 28 30  2  0  0  0  0
 28 55  1  0  0  0  0
 30 56  1  0  0  0  0
M  END
> <PUBCHEM_COMPOUND_CID>
155195439

> <PUBCHEM_COMPOUND_CANONICALIZED>
1

> <PUBCHEM_CACTVS_COMPLEXITY>
601

> <PUBCHEM_CACTVS_HBOND_ACCEPTOR>
6

> <PUBCHEM_CACTVS_HBOND_DONOR>
2

> <PUBCHEM_CACTVS_ROTATABLE_BOND>
6

> <PUBCHEM_CACTVS_SUBSKEYS>
AAADceB7sAAAAAAAAAAAAAAAAAAAAAAAAAA8WLEAAAAAAACxwAAAHgAQAAAADDzhmgY/9pPIFACoAjd3dACCiCkxIiAI2CE+bJiOJvLEsZuHOCjm1BvY6CeY2aOeIAAAAgACAABAAAAEAAQAAAAAAAAAAA==

> <PUBCHEM_IUPAC_OPENEYE_NAME>
7-[(E)-4-[(2S,5S)-2-(6-amino-3-pyridyl)-5-methyl-morpholin-4-yl]but-2-enoxy]-3,4-dihydro-1H-quinolin-2-one

> <PUBCHEM_IUPAC_CAS_NAME>
7-[(E)-4-[(2S,5S)-2-(6-amino-3-pyridinyl)-5-methyl-4-morpholinyl]but-2-enoxy]-3,4-dihydro-1H-quinolin-2-one

> <PUBCHEM_IUPAC_NAME_MARKUP>
7-[(<I>E</I>)-4-[(2<I>S</I>,5<I>S</I>)-2-(6-aminopyridin-3-yl)-5-methylmorpholin-4-yl]but-2-enoxy]-3,4-dihydro-1<I>H</I>-quinolin-2-one

> <PUBCHEM_IUPAC_NAME>
7-[(E)-4-[(2S,5S)-2-(6-aminopyridin-3-yl)-5-methylmorpholin-4-yl]but-2-enoxy]-3,4-dihydro-1H-quinolin-2-one

> <PUBCHEM_IUPAC_SYSTEMATIC_NAME>
7-[(E)-4-[(2S,5S)-2-(6-azanylpyridin-3-yl)-5-methyl-morpholin-4-yl]but-2-enoxy]-3,4-dihydro-1H-quinolin-2-one

> <PUBCHEM_IUPAC_TRADITIONAL_NAME>
7-[(E)-4-[(2S,5S)-2-(6-amino-3-pyridyl)-5-methyl-morpholino]but-2-enoxy]-3,4-dihydrocarbostyril

> <PUBCHEM_IUPAC_INCHI>
InChI=1S/C23H28N4O3/c1-16-15-30-21(18-5-8-22(24)25-13-18)14-27(16)10-2-3-11-29-19-7-4-17-6-9-23(28)26-20(17)12-19/h2-5,7-8,12-13,16,21H,6,9-11,14-15H2,1H3,(H2,24,25)(H,26,28)/b3-2+/t16-,21+/m0/s1

> <PUBCHEM_IUPAC_INCHIKEY>
UJSKIIMXTSGSEQ-BSOFFQDDSA-N

> <PUBCHEM_XLOGP3_AA>
1.6

> <PUBCHEM_EXACT_MASS>
408.21614077

> <PUBCHEM_MOLECULAR_FORMULA>
C23H28N4O3

> <PUBCHEM_MOLECULAR_WEIGHT>
408.5

> <PUBCHEM_OPENEYE_CAN_SMILES>
CC1COC(CN1CC=CCOC2=CC3=C(CCC(=O)N3)C=C2)C4=CN=C(C=C4)N

> <PUBCHEM_OPENEYE_ISO_SMILES>
C[C@H]1CO[C@H](CN1C/C=C/COC2=CC3=C(CCC(=O)N3)C=C2)C4=CN=C(C=C4)N

> <PUBCHEM_CACTVS_TPSA>
89.7

> <PUBCHEM_MONOISOTOPIC_WEIGHT>
408.21614077

> <PUBCHEM_TOTAL_CHARGE>
0

> <PUBCHEM_HEAVY_ATOM_COUNT>
30

> <PUBCHEM_ATOM_DEF_STEREO_COUNT>
2

> <PUBCHEM_ATOM_UDEF_STEREO_COUNT>
0

> <PUBCHEM_BOND_DEF_STEREO_COUNT>
1

> <PUBCHEM_BOND_UDEF_STEREO_COUNT>
0

> <PUBCHEM_ISOTOPIC_ATOM_COUNT>
0

> <PUBCHEM_COMPONENT_COUNT>
1

> <PUBCHEM_CACTVS_TAUTO_COUNT>
-1

> <PUBCHEM_COORDINATE_TYPE>
1
5
255

> <PUBCHEM_BONDANNOTATIONS>
10  14  5
14  16  8
14  17  8
16  19  8
19  25  8
21  22  8
21  28  8
22  27  8
26  27  8
26  30  8
28  30  8
5  17  8
5  25  8
8  13  5

$$$$
