155535680
  -OEChem-09292322402D

 50 53  0     1  0  0  0  0  0999 V2000
   12.8618   -0.0357    0.0000 S   0  0  0  0  0  0  0  0  0  0  0  0
    2.5796    1.6451    0.0000 S   0  0  0  0  0  0  0  0  0  0  0  0
    9.7290   -0.8560    0.0000 N   0  0  3  0  0  0  0  0  0  0  0  0
    5.7204    0.8560    0.0000 N   0  0  3  0  0  0  0  0  0  0  0  0
   12.8699   -1.6451    0.0000 N   0  0  0  0  0  0  0  0  0  0  0  0
    2.5876    0.0357    0.0000 N   0  0  0  0  0  0  0  0  0  0  0  0
    8.7290   -0.8610    0.0000 C   0  0  0  0  0  0  0  0  0  0  0  0
    6.7204    0.8610    0.0000 C   0  0  0  0  0  0  0  0  0  0  0  0
    8.2247    0.0025    0.0000 C   0  0  0  0  0  0  0  0  0  0  0  0
    7.2247   -0.0025    0.0000 C   0  0  0  0  0  0  0  0  0  0  0  0
   10.1584    0.0471    0.0000 C   0  0  0  0  0  0  0  0  0  0  0  0
    5.2820    1.7548    0.0000 C   0  0  0  0  0  0  0  0  0  0  0  0
   10.1674   -1.7548    0.0000 C   0  0  0  0  0  0  0  0  0  0  0  0
    5.2910   -0.0471    0.0000 C   0  0  0  0  0  0  0  0  0  0  0  0
   11.1322    0.2745    0.0000 C   0  0  0  0  0  0  0  0  0  0  0  0
    4.3060    1.9725    0.0000 C   0  0  0  0  0  0  0  0  0  0  0  0
   11.1434   -1.9725    0.0000 C   0  0  0  0  0  0  0  0  0  0  0  0
    4.3172   -0.2745    0.0000 C   0  0  0  0  0  0  0  0  0  0  0  0
   11.9171   -0.3451    0.0000 C   0  0  0  0  0  0  0  0  0  0  0  0
    3.5273    1.3451    0.0000 C   0  0  0  0  0  0  0  0  0  0  0  0
   11.9221   -1.3451    0.0000 C   0  0  0  0  0  0  0  0  0  0  0  0
    3.5323    0.3451    0.0000 C   0  0  0  0  0  0  0  0  0  0  0  0
   13.4494   -0.8375    0.0000 C   0  0  0  0  0  0  0  0  0  0  0  0
    2.0000    0.8375    0.0000 C   0  0  0  0  0  0  0  0  0  0  0  0
    8.1475   -1.0760    0.0000 H   0  0  0  0  0  0  0  0  0  0  0  0
    8.8397   -1.4711    0.0000 H   0  0  0  0  0  0  0  0  0  0  0  0
    7.3020    1.0760    0.0000 H   0  0  0  0  0  0  0  0  0  0  0  0
    6.6097    1.4711    0.0000 H   0  0  0  0  0  0  0  0  0  0  0  0
    8.8063    0.2174    0.0000 H   0  0  0  0  0  0  0  0  0  0  0  0
    8.1140    0.6125    0.0000 H   0  0  0  0  0  0  0  0  0  0  0  0
    6.6432   -0.2174    0.0000 H   0  0  0  0  0  0  0  0  0  0  0  0
    7.3354   -0.6125    0.0000 H   0  0  0  0  0  0  0  0  0  0  0  0
   10.1553    0.6671    0.0000 H   0  0  0  0  0  0  0  0  0  0  0  0
    9.5533    0.1820    0.0000 H   0  0  0  0  0  0  0  0  0  0  0  0
    5.8858    1.8958    0.0000 H   0  0  0  0  0  0  0  0  0  0  0  0
    5.2790    2.3748    0.0000 H   0  0  0  0  0  0  0  0  0  0  0  0
    9.5636   -1.8958    0.0000 H   0  0  0  0  0  0  0  0  0  0  0  0
   10.1705   -2.3748    0.0000 H   0  0  0  0  0  0  0  0  0  0  0  0
    5.2941   -0.6671    0.0000 H   0  0  0  0  0  0  0  0  0  0  0  0
    5.8962   -0.1820    0.0000 H   0  0  0  0  0  0  0  0  0  0  0  0
   11.6150    0.6634    0.0000 H   0  0  0  0  0  0  0  0  0  0  0  0
   10.8604    0.8317    0.0000 H   0  0  0  0  0  0  0  0  0  0  0  0
    4.5723    2.5324    0.0000 H   0  0  0  0  0  0  0  0  0  0  0  0
    3.8194    2.3566    0.0000 H   0  0  0  0  0  0  0  0  0  0  0  0
   10.8772   -2.5324    0.0000 H   0  0  0  0  0  0  0  0  0  0  0  0
   11.6301   -2.3566    0.0000 H   0  0  0  0  0  0  0  0  0  0  0  0
    3.8344   -0.6634    0.0000 H   0  0  0  0  0  0  0  0  0  0  0  0
    4.5890   -0.8317    0.0000 H   0  0  0  0  0  0  0  0  0  0  0  0
   14.0694   -0.8344    0.0000 H   0  0  0  0  0  0  0  0  0  0  0  0
    1.3800    0.8344    0.0000 H   0  0  0  0  0  0  0  0  0  0  0  0
  1 19  1  0  0  0  0
  1 23  1  0  0  0  0
  2 20  1  0  0  0  0
  2 24  1  0  0  0  0
  3  7  1  0  0  0  0
  3 11  1  0  0  0  0
  3 13  1  0  0  0  0
  4  8  1  0  0  0  0
  4 12  1  0  0  0  0
  4 14  1  0  0  0  0
  5 21  1  0  0  0  0
  5 23  2  0  0  0  0
  6 22  1  0  0  0  0
  6 24  2  0  0  0  0
  7  9  1  0  0  0  0
  7 25  1  0  0  0  0
  7 26  1  0  0  0  0
  8 10  1  0  0  0  0
  8 27  1  0  0  0  0
  8 28  1  0  0  0  0
  9 10  1  0  0  0  0
  9 29  1  0  0  0  0
  9 30  1  0  0  0  0
 10 31  1  0  0  0  0
 10 32  1  0  0  0  0
 11 15  1  0  0  0  0
 11 33  1  0  0  0  0
 11 34  1  0  0  0  0
 12 16  1  0  0  0  0
 12 35  1  0  0  0  0
 12 36  1  0  0  0  0
 13 17  1  0  0  0  0
 13 37  1  0  0  0  0
 13 38  1  0  0  0  0
 14 18  1  0  0  0  0
 14 39  1  0  0  0  0
 14 40  1  0  0  0  0
 15 19  1  0  0  0  0
 15 41  1  0  0  0  0
 15 42  1  0  0  0  0
 16 20  1  0  0  0  0
 16 43  1  0  0  0  0
 16 44  1  0  0  0  0
 17 21  1  0  0  0  0
 17 45  1  0  0  0  0
 17 46  1  0  0  0  0
 18 22  1  0  0  0  0
 18 47  1  0  0  0  0
 18 48  1  0  0  0  0
 19 21  2  0  0  0  0
 20 22  2  0  0  0  0
 23 49  1  0  0  0  0
 24 50  1  0  0  0  0
M  END
> <PUBCHEM_COMPOUND_CID>
155535680

> <PUBCHEM_COMPOUND_CANONICALIZED>
1

> <PUBCHEM_CACTVS_COMPLEXITY>
361

> <PUBCHEM_CACTVS_HBOND_ACCEPTOR>
6

> <PUBCHEM_CACTVS_HBOND_DONOR>
0

> <PUBCHEM_CACTVS_ROTATABLE_BOND>
5

> <PUBCHEM_CACTVS_SUBSKEYS>
AAADceB7gABgAAAAAAAAAAAAAAAAAWLAAAAAAAAABYsAAACx4AAAHAQAAAAACAjBVgSEgRMIEAikAQRhRAAA8KBxCDgAWBQ4QAgAIAJgwAEEAAAgAADISAMQAAAAAAAAAAAAAAAAAAAAAAAAAAAAAAAAAA==

> <PUBCHEM_IUPAC_OPENEYE_NAME>
6-[4-(4,5,7,8-tetrahydrothiazolo[4,5-d]azepin-6-yl)butyl]-4,5,7,8-tetrahydrothiazolo[4,5-d]azepine

> <PUBCHEM_IUPAC_CAS_NAME>
6-[4-(4,5,7,8-tetrahydrothiazolo[4,5-d]azepin-6-yl)butyl]-4,5,7,8-tetrahydrothiazolo[4,5-d]azepine

> <PUBCHEM_IUPAC_NAME_MARKUP>
6-[4-(4,5,7,8-tetrahydro-[1,3]thiazolo[4,5-d]azepin-6-yl)butyl]-4,5,7,8-tetrahydro-[1,3]thiazolo[4,5-d]azepine

> <PUBCHEM_IUPAC_NAME>
6-[4-(4,5,7,8-tetrahydro-[1,3]thiazolo[4,5-d]azepin-6-yl)butyl]-4,5,7,8-tetrahydro-[1,3]thiazolo[4,5-d]azepine

> <PUBCHEM_IUPAC_SYSTEMATIC_NAME>
6-[4-(4,5,7,8-tetrahydro-[1,3]thiazolo[4,5-d]azepin-6-yl)butyl]-4,5,7,8-tetrahydro-[1,3]thiazolo[4,5-d]azepine

> <PUBCHEM_IUPAC_TRADITIONAL_NAME>
6-[4-(4,5,7,8-tetrahydrothiazol[4,5-d]azepin-6-yl)butyl]-4,5,7,8-tetrahydrothiazol[4,5-d]azepine

> <PUBCHEM_IUPAC_INCHI>
InChI=1S/C18H26N4S2/c1(7-21-9-3-15-17(5-11-21)23-13-19-15)2-8-22-10-4-16-18(6-12-22)24-14-20-16/h13-14H,1-12H2

> <PUBCHEM_IUPAC_INCHIKEY>
XWOWUPZMWGTZIJ-UHFFFAOYSA-N

> <PUBCHEM_XLOGP3_AA>
3.2

> <PUBCHEM_EXACT_MASS>
362.15988919

> <PUBCHEM_MOLECULAR_FORMULA>
C18H26N4S2

> <PUBCHEM_MOLECULAR_WEIGHT>
362.6

> <PUBCHEM_OPENEYE_CAN_SMILES>
C1CN(CCC2=C1N=CS2)CCCCN3CCC4=C(CC3)SC=N4

> <PUBCHEM_OPENEYE_ISO_SMILES>
C1CN(CCC2=C1N=CS2)CCCCN3CCC4=C(CC3)SC=N4

> <PUBCHEM_CACTVS_TPSA>
88.7

> <PUBCHEM_MONOISOTOPIC_WEIGHT>
362.15988919

> <PUBCHEM_TOTAL_CHARGE>
0

> <PUBCHEM_HEAVY_ATOM_COUNT>
24

> <PUBCHEM_ATOM_DEF_STEREO_COUNT>
0

> <PUBCHEM_ATOM_UDEF_STEREO_COUNT>
0

> <PUBCHEM_BOND_DEF_STEREO_COUNT>
0

> <PUBCHEM_BOND_UDEF_STEREO_COUNT>
0

> <PUBCHEM_ISOTOPIC_ATOM_COUNT>
0

> <PUBCHEM_COMPONENT_COUNT>
1

> <PUBCHEM_CACTVS_TAUTO_COUNT>
-1

> <PUBCHEM_COORDINATE_TYPE>
1
5
255

> <PUBCHEM_BONDANNOTATIONS>
1  19  8
1  23  8
19  21  8
2  20  8
2  24  8
20  22  8
5  21  8
5  23  8
6  22  8
6  24  8

$$$$
