44266678
  -OEChem-09292322512D

 48 51  0     1  0  0  0  0  0999 V2000
    5.8134    3.1723    0.0000 O   0  0  0  0  0  0  0  0  0  0  0  0
    4.8890   -0.1639    0.0000 N   0  0  3  0  0  0  0  0  0  0  0  0
    5.8352    0.1408    0.0000 C   0  0  1  0  0  0  0  0  0  0  0  0
    5.8352    1.1408    0.0000 C   0  0  3  0  0  0  0  0  0  0  0  0
    4.8890    1.4455    0.0000 C   0  0  0  0  0  0  0  0  0  0  0  0
    6.7012   -0.3592    0.0000 C   0  0  0  0  0  0  0  0  0  0  0  0
    4.3054    0.6408    0.0000 C   0  0  0  0  0  0  0  0  0  0  0  0
    6.7012    1.6408    0.0000 C   0  0  0  0  0  0  0  0  0  0  0  0
    7.5673    0.1408    0.0000 C   0  0  0  0  0  0  0  0  0  0  0  0
    7.5673    1.1408    0.0000 C   0  0  0  0  0  0  0  0  0  0  0  0
    4.5783   -1.1144    0.0000 C   0  0  0  0  0  0  0  0  0  0  0  0
    6.6852    2.6823    0.0000 C   0  0  0  0  0  0  0  0  0  0  0  0
    3.5998   -1.3207    0.0000 C   0  0  0  0  0  0  0  0  0  0  0  0
    8.4773    1.6477    0.0000 C   0  0  0  0  0  0  0  0  0  0  0  0
    7.5832    3.2101    0.0000 C   0  0  0  0  0  0  0  0  0  0  0  0
    8.4853    2.6893    0.0000 C   0  0  0  0  0  0  0  0  0  0  0  0
    3.2892   -2.2712    0.0000 C   0  0  0  0  0  0  0  0  0  0  0  0
    2.3107   -2.4774    0.0000 C   0  0  0  0  0  0  0  0  0  0  0  0
    3.9570   -3.0155    0.0000 C   0  0  0  0  0  0  0  0  0  0  0  0
    5.8019    4.1722    0.0000 C   0  0  0  0  0  0  0  0  0  0  0  0
    2.0000   -3.4279    0.0000 C   0  0  0  0  0  0  0  0  0  0  0  0
    3.6464   -3.9660    0.0000 C   0  0  0  0  0  0  0  0  0  0  0  0
    2.6678   -4.1722    0.0000 C   0  0  0  0  0  0  0  0  0  0  0  0
    5.7453   -0.7044    0.0000 H   0  0  0  0  0  0  0  0  0  0  0  0
    5.7696    1.7573    0.0000 H   0  0  0  0  0  0  0  0  0  0  0  0
    5.1400    2.0125    0.0000 H   0  0  0  0  0  0  0  0  0  0  0  0
    4.3516    1.7548    0.0000 H   0  0  0  0  0  0  0  0  0  0  0  0
    6.3027   -0.8341    0.0000 H   0  0  0  0  0  0  0  0  0  0  0  0
    7.0998   -0.8341    0.0000 H   0  0  0  0  0  0  0  0  0  0  0  0
    3.8445    1.0556    0.0000 H   0  0  0  0  0  0  0  0  0  0  0  0
    3.8445    0.2261    0.0000 H   0  0  0  0  0  0  0  0  0  0  0  0
    7.7793   -0.4418    0.0000 H   0  0  0  0  0  0  0  0  0  0  0  0
    8.1778    0.2485    0.0000 H   0  0  0  0  0  0  0  0  0  0  0  0
    4.5989   -1.7341    0.0000 H   0  0  0  0  0  0  0  0  0  0  0  0
    5.1922   -1.2018    0.0000 H   0  0  0  0  0  0  0  0  0  0  0  0
    3.5793   -0.7010    0.0000 H   0  0  0  0  0  0  0  0  0  0  0  0
    2.9860   -1.2333    0.0000 H   0  0  0  0  0  0  0  0  0  0  0  0
    9.0106    1.3315    0.0000 H   0  0  0  0  0  0  0  0  0  0  0  0
    7.5808    3.8301    0.0000 H   0  0  0  0  0  0  0  0  0  0  0  0
    9.0234    2.9972    0.0000 H   0  0  0  0  0  0  0  0  0  0  0  0
    1.8966   -2.0159    0.0000 H   0  0  0  0  0  0  0  0  0  0  0  0
    4.5637   -2.8876    0.0000 H   0  0  0  0  0  0  0  0  0  0  0  0
    6.4218    4.1794    0.0000 H   0  0  0  0  0  0  0  0  0  0  0  0
    5.7947    4.7922    0.0000 H   0  0  0  0  0  0  0  0  0  0  0  0
    5.1819    4.1650    0.0000 H   0  0  0  0  0  0  0  0  0  0  0  0
    1.3933   -3.5558    0.0000 H   0  0  0  0  0  0  0  0  0  0  0  0
    4.0604   -4.4275    0.0000 H   0  0  0  0  0  0  0  0  0  0  0  0
    2.4752   -4.7615    0.0000 H   0  0  0  0  0  0  0  0  0  0  0  0
  1 12  1  0  0  0  0
  1 20  1  0  0  0  0
  2  3  1  0  0  0  0
  2  7  1  0  0  0  0
  2 11  1  0  0  0  0
  3  4  1  0  0  0  0
  3  6  1  0  0  0  0
  3 24  1  6  0  0  0
  4  5  1  0  0  0  0
  4  8  1  0  0  0  0
  4 25  1  0  0  0  0
  5  7  1  0  0  0  0
  5 26  1  0  0  0  0
  5 27  1  0  0  0  0
  6  9  1  0  0  0  0
  6 28  1  0  0  0  0
  6 29  1  0  0  0  0
  7 30  1  0  0  0  0
  7 31  1  0  0  0  0
  8 10  2  0  0  0  0
  8 12  1  0  0  0  0
  9 10  1  0  0  0  0
  9 32  1  0  0  0  0
  9 33  1  0  0  0  0
 10 14  1  0  0  0  0
 11 13  1  0  0  0  0
 11 34  1  0  0  0  0
 11 35  1  0  0  0  0
 12 15  2  0  0  0  0
 13 17  1  0  0  0  0
 13 36  1  0  0  0  0
 13 37  1  0  0  0  0
 14 16  2  0  0  0  0
 14 38  1  0  0  0  0
 15 16  1  0  0  0  0
 15 39  1  0  0  0  0
 16 40  1  0  0  0  0
 17 18  2  0  0  0  0
 17 19  1  0  0  0  0
 18 21  1  0  0  0  0
 18 41  1  0  0  0  0
 19 22  2  0  0  0  0
 19 42  1  0  0  0  0
 20 43  1  0  0  0  0
 20 44  1  0  0  0  0
 20 45  1  0  0  0  0
 21 23  2  0  0  0  0
 21 46  1  0  0  0  0
 22 23  1  0  0  0  0
 22 47  1  0  0  0  0
 23 48  1  0  0  0  0
M  END
> <PUBCHEM_COMPOUND_CID>
44266678

> <PUBCHEM_COMPOUND_CANONICALIZED>
1

> <PUBCHEM_CACTVS_COMPLEXITY>
378

> <PUBCHEM_CACTVS_HBOND_ACCEPTOR>
2

> <PUBCHEM_CACTVS_HBOND_DONOR>
0

> <PUBCHEM_CACTVS_ROTATABLE_BOND>
4

> <PUBCHEM_CACTVS_SUBSKEYS>
AAADceB6IAAAAAAAAAAAAAAAAAAAAWAAAAAwYMAAAAAAAFjBQAAAHgAAAAAADSzBmAYyBoMABACAAiBCAAACCAAgIAAIiAAOCIgMJiKEsRuEMCAkwBGIqAew0PIOgAABAAAYAAAQAAaAADQAAAAAAAAAAA==

> <PUBCHEM_IUPAC_OPENEYE_NAME>
(3aR)-9-methoxy-3-(2-phenylethyl)-1,2,3a,4,5,9b-hexahydrobenzo[e]indole

> <PUBCHEM_IUPAC_CAS_NAME>
(3aR)-9-methoxy-3-(2-phenylethyl)-1,2,3a,4,5,9b-hexahydrobenzo[e]indole

> <PUBCHEM_IUPAC_NAME_MARKUP>
(3<I>a</I><I>R</I>)-9-methoxy-3-(2-phenylethyl)-1,2,3<I>a</I>,4,5,9<I>b</I>-hexahydrobenzo[e]indole

> <PUBCHEM_IUPAC_NAME>
(3aR)-9-methoxy-3-(2-phenylethyl)-1,2,3a,4,5,9b-hexahydrobenzo[e]indole

> <PUBCHEM_IUPAC_SYSTEMATIC_NAME>
(3aR)-9-methoxy-3-(2-phenylethyl)-1,2,3a,4,5,9b-hexahydrobenzo[e]indole

> <PUBCHEM_IUPAC_TRADITIONAL_NAME>
(3aR)-9-methoxy-3-phenethyl-1,2,3a,4,5,9b-hexahydrobenz[e]indole

> <PUBCHEM_IUPAC_INCHI>
InChI=1S/C21H25NO/c1-23-20-9-5-8-17-10-11-19-18(21(17)20)13-15-22(19)14-12-16-6-3-2-4-7-16/h2-9,18-19H,10-15H2,1H3/t18?,19-/m1/s1

> <PUBCHEM_IUPAC_INCHIKEY>
PPFLJANGUQOHFJ-MUMRKEEXSA-N

> <PUBCHEM_XLOGP3_AA>
4.5

> <PUBCHEM_EXACT_MASS>
307.193614421

> <PUBCHEM_MOLECULAR_FORMULA>
C21H25NO

> <PUBCHEM_MOLECULAR_WEIGHT>
307.4

> <PUBCHEM_OPENEYE_CAN_SMILES>
COC1=CC=CC2=C1C3CCN(C3CC2)CCC4=CC=CC=C4

> <PUBCHEM_OPENEYE_ISO_SMILES>
COC1=CC=CC2=C1C3CCN([C@@H]3CC2)CCC4=CC=CC=C4

> <PUBCHEM_CACTVS_TPSA>
12.5

> <PUBCHEM_MONOISOTOPIC_WEIGHT>
307.193614421

> <PUBCHEM_TOTAL_CHARGE>
0

> <PUBCHEM_HEAVY_ATOM_COUNT>
23

> <PUBCHEM_ATOM_DEF_STEREO_COUNT>
1

> <PUBCHEM_ATOM_UDEF_STEREO_COUNT>
1

> <PUBCHEM_BOND_DEF_STEREO_COUNT>
0

> <PUBCHEM_BOND_UDEF_STEREO_COUNT>
0

> <PUBCHEM_ISOTOPIC_ATOM_COUNT>
0

> <PUBCHEM_COMPONENT_COUNT>
1

> <PUBCHEM_CACTVS_TAUTO_COUNT>
-1

> <PUBCHEM_COORDINATE_TYPE>
1
5
255

> <PUBCHEM_BONDANNOTATIONS>
10  14  8
12  15  8
14  16  8
15  16  8
17  18  8
17  19  8
18  21  8
19  22  8
21  23  8
22  23  8
3  24  6
4  5  3
8  10  8
8  12  8

$$$$
