21959998
  -OEChem-09292322462D

 56 59  0     0  0  0  0  0  0999 V2000
    2.0000   -5.4890    0.0000 F   0  0  0  0  0  0  0  0  0  0  0  0
    5.5443   -5.2938    0.0000 O   0  0  0  0  0  0  0  0  0  0  0  0
    9.0546    1.4807    0.0000 O   0  0  0  0  0  0  0  0  0  0  0  0
   11.2758    5.4890    0.0000 O   0  0  0  0  0  0  0  0  0  0  0  0
    6.4763   -0.8327    0.0000 N   0  0  0  0  0  0  0  0  0  0  0  0
    6.1279   -4.4890    0.0000 N   0  0  0  0  0  0  0  0  0  0  0  0
   11.6330    3.7942    0.0000 N   0  0  0  0  0  0  0  0  0  0  0  0
    5.8550   -2.7338    0.0000 C   0  0  0  0  0  0  0  0  0  0  0  0
    5.1871   -1.9895    0.0000 C   0  0  0  0  0  0  0  0  0  0  0  0
    6.8335   -2.5276    0.0000 C   0  0  0  0  0  0  0  0  0  0  0  0
    5.4978   -1.0390    0.0000 C   0  0  0  0  0  0  0  0  0  0  0  0
    7.1441   -1.5770    0.0000 C   0  0  0  0  0  0  0  0  0  0  0  0
    6.7870    0.1178    0.0000 C   0  0  0  0  0  0  0  0  0  0  0  0
    5.5443   -3.6843    0.0000 C   0  0  0  0  0  0  0  0  0  0  0  0
    7.7654    0.3240    0.0000 C   0  0  0  0  0  0  0  0  0  0  0  0
    4.5981   -3.9890    0.0000 C   0  0  0  0  0  0  0  0  0  0  0  0
    4.5981   -4.9890    0.0000 C   0  0  0  0  0  0  0  0  0  0  0  0
    8.0761    1.2745    0.0000 C   0  0  0  0  0  0  0  0  0  0  0  0
    3.7320   -3.4890    0.0000 C   0  0  0  0  0  0  0  0  0  0  0  0
    3.7320   -5.4890    0.0000 C   0  0  0  0  0  0  0  0  0  0  0  0
    2.8660   -3.9890    0.0000 C   0  0  0  0  0  0  0  0  0  0  0  0
    2.8660   -4.9890    0.0000 C   0  0  0  0  0  0  0  0  0  0  0  0
    9.3653    2.4313    0.0000 C   0  0  0  0  0  0  0  0  0  0  0  0
   10.3438    2.6375    0.0000 C   0  0  0  0  0  0  0  0  0  0  0  0
    8.6974    3.1756    0.0000 C   0  0  0  0  0  0  0  0  0  0  0  0
   10.6545    3.5880    0.0000 C   0  0  0  0  0  0  0  0  0  0  0  0
    9.0081    4.1261    0.0000 C   0  0  0  0  0  0  0  0  0  0  0  0
    9.9866    4.3323    0.0000 C   0  0  0  0  0  0  0  0  0  0  0  0
   11.9436    4.7447    0.0000 C   0  0  0  0  0  0  0  0  0  0  0  0
   12.9221    4.9510    0.0000 C   0  0  0  0  0  0  0  0  0  0  0  0
    6.2690   -3.1952    0.0000 H   0  0  0  0  0  0  0  0  0  0  0  0
    4.6402   -1.6975    0.0000 H   0  0  0  0  0  0  0  0  0  0  0  0
    4.8046   -2.4774    0.0000 H   0  0  0  0  0  0  0  0  0  0  0  0
    6.8540   -3.1472    0.0000 H   0  0  0  0  0  0  0  0  0  0  0  0
    7.4473   -2.6149    0.0000 H   0  0  0  0  0  0  0  0  0  0  0  0
    5.4772   -0.4193    0.0000 H   0  0  0  0  0  0  0  0  0  0  0  0
    4.8840   -0.9516    0.0000 H   0  0  0  0  0  0  0  0  0  0  0  0
    7.6910   -1.8691    0.0000 H   0  0  0  0  0  0  0  0  0  0  0  0
    7.5267   -1.0891    0.0000 H   0  0  0  0  0  0  0  0  0  0  0  0
    6.7664    0.7374    0.0000 H   0  0  0  0  0  0  0  0  0  0  0  0
    6.1731    0.2051    0.0000 H   0  0  0  0  0  0  0  0  0  0  0  0
    7.7860   -0.2957    0.0000 H   0  0  0  0  0  0  0  0  0  0  0  0
    8.3793    0.2366    0.0000 H   0  0  0  0  0  0  0  0  0  0  0  0
    8.0556    1.8942    0.0000 H   0  0  0  0  0  0  0  0  0  0  0  0
    7.4623    1.3619    0.0000 H   0  0  0  0  0  0  0  0  0  0  0  0
    3.7320   -2.8690    0.0000 H   0  0  0  0  0  0  0  0  0  0  0  0
    3.7320   -6.1090    0.0000 H   0  0  0  0  0  0  0  0  0  0  0  0
    2.3291   -3.6790    0.0000 H   0  0  0  0  0  0  0  0  0  0  0  0
   10.7578    2.1760    0.0000 H   0  0  0  0  0  0  0  0  0  0  0  0
    8.0908    3.0477    0.0000 H   0  0  0  0  0  0  0  0  0  0  0  0
    8.5940    4.5875    0.0000 H   0  0  0  0  0  0  0  0  0  0  0  0
   10.1792    4.9216    0.0000 H   0  0  0  0  0  0  0  0  0  0  0  0
   12.0470    3.3328    0.0000 H   0  0  0  0  0  0  0  0  0  0  0  0
   13.0500    4.3443    0.0000 H   0  0  0  0  0  0  0  0  0  0  0  0
   13.5288    5.0788    0.0000 H   0  0  0  0  0  0  0  0  0  0  0  0
   12.7943    5.5576    0.0000 H   0  0  0  0  0  0  0  0  0  0  0  0
  1 22  1  0  0  0  0
  2  6  1  0  0  0  0
  2 17  1  0  0  0  0
  3 18  1  0  0  0  0
  3 23  1  0  0  0  0
  4 29  2  0  0  0  0
  5 11  1  0  0  0  0
  5 12  1  0  0  0  0
  5 13  1  0  0  0  0
  6 14  2  0  0  0  0
  7 26  1  0  0  0  0
  7 29  1  0  0  0  0
  7 53  1  0  0  0  0
  8  9  1  0  0  0  0
  8 10  1  0  0  0  0
  8 14  1  0  0  0  0
  8 31  1  0  0  0  0
  9 11  1  0  0  0  0
  9 32  1  0  0  0  0
  9 33  1  0  0  0  0
 10 12  1  0  0  0  0
 10 34  1  0  0  0  0
 10 35  1  0  0  0  0
 11 36  1  0  0  0  0
 11 37  1  0  0  0  0
 12 38  1  0  0  0  0
 12 39  1  0  0  0  0
 13 15  1  0  0  0  0
 13 40  1  0  0  0  0
 13 41  1  0  0  0  0
 14 16  1  0  0  0  0
 15 18  1  0  0  0  0
 15 42  1  0  0  0  0
 15 43  1  0  0  0  0
 16 17  2  0  0  0  0
 16 19  1  0  0  0  0
 17 20  1  0  0  0  0
 18 44  1  0  0  0  0
 18 45  1  0  0  0  0
 19 21  2  0  0  0  0
 19 46  1  0  0  0  0
 20 22  2  0  0  0  0
 20 47  1  0  0  0  0
 21 22  1  0  0  0  0
 21 48  1  0  0  0  0
 23 24  1  0  0  0  0
 23 25  2  0  0  0  0
 24 26  2  0  0  0  0
 24 49  1  0  0  0  0
 25 27  1  0  0  0  0
 25 50  1  0  0  0  0
 26 28  1  0  0  0  0
 27 28  2  0  0  0  0
 27 51  1  0  0  0  0
 28 52  1  0  0  0  0
 29 30  1  0  0  0  0
 30 54  1  0  0  0  0
 30 55  1  0  0  0  0
 30 56  1  0  0  0  0
M  END
> <PUBCHEM_COMPOUND_CID>
21959998

> <PUBCHEM_COMPOUND_CANONICALIZED>
1

> <PUBCHEM_CACTVS_COMPLEXITY>
558

> <PUBCHEM_CACTVS_HBOND_ACCEPTOR>
6

> <PUBCHEM_CACTVS_HBOND_DONOR>
1

> <PUBCHEM_CACTVS_ROTATABLE_BOND>
7

> <PUBCHEM_CACTVS_SUBSKEYS>
AAADceB7MQAAAAAAAAAAAAAAAAAAAWAAAAA8YIAAAAAAAFgB9AAAHwAUAAAADQzhng4yxtPQBACpA6VyUgCCCAAlIgAomCE+bNoMJrrEtZuGOajm1BnI6ceY2OOOAAAAAgAIAAAAAAAEABAAAAAAAAAAAA==

> <PUBCHEM_IUPAC_OPENEYE_NAME>
N-[3-[3-[4-(6-fluoro-1,2-benzoxazol-3-yl)-1-piperidyl]propoxy]phenyl]acetamide

> <PUBCHEM_IUPAC_CAS_NAME>
N-[3-[3-[4-(6-fluoro-1,2-benzoxazol-3-yl)-1-piperidinyl]propoxy]phenyl]acetamide

> <PUBCHEM_IUPAC_NAME_MARKUP>
<I>N</I>-[3-[3-[4-(6-fluoro-1,2-benzoxazol-3-yl)piperidin-1-yl]propoxy]phenyl]acetamide

> <PUBCHEM_IUPAC_NAME>
N-[3-[3-[4-(6-fluoro-1,2-benzoxazol-3-yl)piperidin-1-yl]propoxy]phenyl]acetamide

> <PUBCHEM_IUPAC_SYSTEMATIC_NAME>
N-[3-[3-[4-(6-fluoranyl-1,2-benzoxazol-3-yl)piperidin-1-yl]propoxy]phenyl]ethanamide

> <PUBCHEM_IUPAC_TRADITIONAL_NAME>
N-[3-[3-[4-(6-fluoroindoxazen-3-yl)piperidino]propoxy]phenyl]acetamide

> <PUBCHEM_IUPAC_INCHI>
InChI=1S/C23H26FN3O3/c1-16(28)25-19-4-2-5-20(15-19)29-13-3-10-27-11-8-17(9-12-27)23-21-7-6-18(24)14-22(21)30-26-23/h2,4-7,14-15,17H,3,8-13H2,1H3,(H,25,28)

> <PUBCHEM_IUPAC_INCHIKEY>
NCNRXHBCJNHSAO-UHFFFAOYSA-N

> <PUBCHEM_XLOGP3_AA>
3.6

> <PUBCHEM_EXACT_MASS>
411.19581986

> <PUBCHEM_MOLECULAR_FORMULA>
C23H26FN3O3

> <PUBCHEM_MOLECULAR_WEIGHT>
411.5

> <PUBCHEM_OPENEYE_CAN_SMILES>
CC(=O)NC1=CC(=CC=C1)OCCCN2CCC(CC2)C3=NOC4=C3C=CC(=C4)F

> <PUBCHEM_OPENEYE_ISO_SMILES>
CC(=O)NC1=CC(=CC=C1)OCCCN2CCC(CC2)C3=NOC4=C3C=CC(=C4)F

> <PUBCHEM_CACTVS_TPSA>
67.6

> <PUBCHEM_MONOISOTOPIC_WEIGHT>
411.19581986

> <PUBCHEM_TOTAL_CHARGE>
0

> <PUBCHEM_HEAVY_ATOM_COUNT>
30

> <PUBCHEM_ATOM_DEF_STEREO_COUNT>
0

> <PUBCHEM_ATOM_UDEF_STEREO_COUNT>
0

> <PUBCHEM_BOND_DEF_STEREO_COUNT>
0

> <PUBCHEM_BOND_UDEF_STEREO_COUNT>
0

> <PUBCHEM_ISOTOPIC_ATOM_COUNT>
0

> <PUBCHEM_COMPONENT_COUNT>
1

> <PUBCHEM_CACTVS_TAUTO_COUNT>
-1

> <PUBCHEM_COORDINATE_TYPE>
1
5
255

> <PUBCHEM_BONDANNOTATIONS>
14  16  8
16  17  8
16  19  8
17  20  8
19  21  8
2  17  8
2  6  8
20  22  8
21  22  8
23  24  8
23  25  8
24  26  8
25  27  8
26  28  8
27  28  8
6  14  8

$$$$
