449126
  -OEChem-09292322512D

 34 36  0     0  0  0  0  0  0999 V2000
    6.2498    4.1974    0.0000 Cl  0  0  0  0  0  0  0  0  0  0  0  0
    3.3987   -3.5774    0.0000 N   0  0  0  0  0  0  0  0  0  0  0  0
    2.5896    0.0103    0.0000 N   0  0  0  0  0  0  0  0  0  0  0  0
    2.8987    0.9614    0.0000 N   0  0  0  0  0  0  0  0  0  0  0  0
    3.3987   -1.5774    0.0000 C   0  0  0  0  0  0  0  0  0  0  0  0
    2.5326   -2.0774    0.0000 C   0  0  0  0  0  0  0  0  0  0  0  0
    4.2647   -2.0774    0.0000 C   0  0  0  0  0  0  0  0  0  0  0  0
    2.5326   -3.0774    0.0000 C   0  0  0  0  0  0  0  0  0  0  0  0
    4.2647   -3.0774    0.0000 C   0  0  0  0  0  0  0  0  0  0  0  0
    3.3987   -0.5775    0.0000 C   0  0  0  0  0  0  0  0  0  0  0  0
    4.2077    0.0103    0.0000 C   0  0  0  0  0  0  0  0  0  0  0  0
    3.8987    0.9614    0.0000 C   0  0  0  0  0  0  0  0  0  0  0  0
    4.4865    1.7704    0.0000 C   0  0  0  0  0  0  0  0  0  0  0  0
    5.4810    1.6659    0.0000 C   0  0  0  0  0  0  0  0  0  0  0  0
    4.0797    2.6840    0.0000 C   0  0  0  0  0  0  0  0  0  0  0  0
    6.0688    2.4749    0.0000 C   0  0  0  0  0  0  0  0  0  0  0  0
    4.6675    3.4930    0.0000 C   0  0  0  0  0  0  0  0  0  0  0  0
    5.6620    3.3884    0.0000 C   0  0  0  0  0  0  0  0  0  0  0  0
    3.9356   -1.2674    0.0000 H   0  0  0  0  0  0  0  0  0  0  0  0
    2.3206   -1.4948    0.0000 H   0  0  0  0  0  0  0  0  0  0  0  0
    1.9221   -2.1851    0.0000 H   0  0  0  0  0  0  0  0  0  0  0  0
    4.8753   -2.1851    0.0000 H   0  0  0  0  0  0  0  0  0  0  0  0
    4.4768   -1.4948    0.0000 H   0  0  0  0  0  0  0  0  0  0  0  0
    1.9221   -2.9698    0.0000 H   0  0  0  0  0  0  0  0  0  0  0  0
    2.3206   -3.6601    0.0000 H   0  0  0  0  0  0  0  0  0  0  0  0
    4.4768   -3.6601    0.0000 H   0  0  0  0  0  0  0  0  0  0  0  0
    4.8753   -2.9698    0.0000 H   0  0  0  0  0  0  0  0  0  0  0  0
    3.3987   -4.1974    0.0000 H   0  0  0  0  0  0  0  0  0  0  0  0
    4.7973   -0.1813    0.0000 H   0  0  0  0  0  0  0  0  0  0  0  0
    2.0000   -0.1813    0.0000 H   0  0  0  0  0  0  0  0  0  0  0  0
    5.7332    1.0995    0.0000 H   0  0  0  0  0  0  0  0  0  0  0  0
    3.4631    2.7488    0.0000 H   0  0  0  0  0  0  0  0  0  0  0  0
    6.6854    2.4101    0.0000 H   0  0  0  0  0  0  0  0  0  0  0  0
    4.4153    4.0594    0.0000 H   0  0  0  0  0  0  0  0  0  0  0  0
  1 18  1  0  0  0  0
  2  8  1  0  0  0  0
  2  9  1  0  0  0  0
  2 28  1  0  0  0  0
  3  4  1  0  0  0  0
  3 10  1  0  0  0  0
  3 30  1  0  0  0  0
  4 12  2  0  0  0  0
  5  6  1  0  0  0  0
  5  7  1  0  0  0  0
  5 10  1  0  0  0  0
  5 19  1  0  0  0  0
  6  8  1  0  0  0  0
  6 20  1  0  0  0  0
  6 21  1  0  0  0  0
  7  9  1  0  0  0  0
  7 22  1  0  0  0  0
  7 23  1  0  0  0  0
  8 24  1  0  0  0  0
  8 25  1  0  0  0  0
  9 26  1  0  0  0  0
  9 27  1  0  0  0  0
 10 11  2  0  0  0  0
 11 12  1  0  0  0  0
 11 29  1  0  0  0  0
 12 13  1  0  0  0  0
 13 14  2  0  0  0  0
 13 15  1  0  0  0  0
 14 16  1  0  0  0  0
 14 31  1  0  0  0  0
 15 17  2  0  0  0  0
 15 32  1  0  0  0  0
 16 18  2  0  0  0  0
 16 33  1  0  0  0  0
 17 18  1  0  0  0  0
 17 34  1  0  0  0  0
M  END
> <PUBCHEM_COMPOUND_CID>
449126

> <PUBCHEM_COMPOUND_CANONICALIZED>
1

> <PUBCHEM_CACTVS_COMPLEXITY>
260

> <PUBCHEM_CACTVS_HBOND_ACCEPTOR>
2

> <PUBCHEM_CACTVS_HBOND_DONOR>
2

> <PUBCHEM_CACTVS_ROTATABLE_BOND>
2

> <PUBCHEM_CACTVS_SUBSKEYS>
AAADceBzAAAEAAAAAAAAAAAAAAAAAWAAAAA8QAAAAAAAAAABwAAAHAIYAAAADQrBHiQwgJLjAACiAyRiQACSBAAgBwAYuaA4ZpgIIKKB09GEpABgmACIyAcQgMAOBAAAAAAAAAAIAAAAAAAAAAAAAAAAAA==

> <PUBCHEM_IUPAC_OPENEYE_NAME>
4-[3-(4-chlorophenyl)-1H-pyrazol-5-yl]piperidine

> <PUBCHEM_IUPAC_CAS_NAME>
4-[3-(4-chlorophenyl)-1H-pyrazol-5-yl]piperidine

> <PUBCHEM_IUPAC_NAME_MARKUP>
4-[3-(4-chlorophenyl)-1<I>H</I>-pyrazol-5-yl]piperidine

> <PUBCHEM_IUPAC_NAME>
4-[3-(4-chlorophenyl)-1H-pyrazol-5-yl]piperidine

> <PUBCHEM_IUPAC_SYSTEMATIC_NAME>
4-[3-(4-chlorophenyl)-1H-pyrazol-5-yl]piperidine

> <PUBCHEM_IUPAC_TRADITIONAL_NAME>
4-[3-(4-chlorophenyl)-1H-pyrazol-5-yl]piperidine

> <PUBCHEM_IUPAC_INCHI>
InChI=1S/C14H16ClN3/c15-12-3-1-10(2-4-12)13-9-14(18-17-13)11-5-7-16-8-6-11/h1-4,9,11,16H,5-8H2,(H,17,18)

> <PUBCHEM_IUPAC_INCHIKEY>
GELALLNTKKLQLM-UHFFFAOYSA-N

> <PUBCHEM_XLOGP3_AA>
2.7

> <PUBCHEM_EXACT_MASS>
261.1032752

> <PUBCHEM_MOLECULAR_FORMULA>
C14H16ClN3

> <PUBCHEM_MOLECULAR_WEIGHT>
261.75

> <PUBCHEM_OPENEYE_CAN_SMILES>
C1CNCCC1C2=CC(=NN2)C3=CC=C(C=C3)Cl

> <PUBCHEM_OPENEYE_ISO_SMILES>
C1CNCCC1C2=CC(=NN2)C3=CC=C(C=C3)Cl

> <PUBCHEM_CACTVS_TPSA>
40.7

> <PUBCHEM_MONOISOTOPIC_WEIGHT>
261.1032752

> <PUBCHEM_TOTAL_CHARGE>
0

> <PUBCHEM_HEAVY_ATOM_COUNT>
18

> <PUBCHEM_ATOM_DEF_STEREO_COUNT>
0

> <PUBCHEM_ATOM_UDEF_STEREO_COUNT>
0

> <PUBCHEM_BOND_DEF_STEREO_COUNT>
0

> <PUBCHEM_BOND_UDEF_STEREO_COUNT>
0

> <PUBCHEM_ISOTOPIC_ATOM_COUNT>
0

> <PUBCHEM_COMPONENT_COUNT>
1

> <PUBCHEM_CACTVS_TAUTO_COUNT>
-1

> <PUBCHEM_COORDINATE_TYPE>
1
5
255

> <PUBCHEM_BONDANNOTATIONS>
10  11  8
11  12  8
13  14  8
13  15  8
14  16  8
15  17  8
16  18  8
17  18  8
3  10  8
3  4  8
4  12  8

$$$$
