145987659
  -OEChem-09292322062D

 57 62  0     1  0  0  0  0  0999 V2000
   13.8288    1.0010    0.0000 S   0  0  0  0  0  0  0  0  0  0  0  0
    4.7150   -2.8568    0.0000 O   0  0  0  0  0  0  0  0  0  0  0  0
    5.9157    0.4420    0.0000 O   0  0  0  0  0  0  0  0  0  0  0  0
    5.5718   -1.3007    0.0000 N   0  0  0  0  0  0  0  0  0  0  0  0
    8.9833   -0.6992    0.0000 N   0  0  0  0  0  0  0  0  0  0  0  0
   10.5154    0.5864    0.0000 N   0  0  0  0  0  0  0  0  0  0  0  0
    3.9632   -1.2473    0.0000 C   0  0  2  0  0  0  0  0  0  0  0  0
    4.3053   -0.3076    0.0000 C   0  0  1  0  0  0  0  0  0  0  0  0
    2.5906   -0.6553    0.0000 C   0  0  1  0  0  0  0  0  0  0  0  0
    2.3317    0.3106    0.0000 C   0  0  2  0  0  0  0  0  0  0  0  0
    3.0683    1.2932    0.0000 C   0  0  0  0  0  0  0  0  0  0  0  0
    1.1916   -1.1641    0.0000 C   0  0  0  0  0  0  0  0  0  0  0  0
    0.9328   -0.1982    0.0000 C   0  0  0  0  0  0  0  0  0  0  0  0
    4.7482   -1.8573    0.0000 C   0  0  0  0  0  0  0  0  0  0  0  0
    5.2986   -0.3449    0.0000 C   0  0  0  0  0  0  0  0  0  0  0  0
    6.5115   -1.6427    0.0000 C   0  0  0  0  0  0  0  0  0  0  0  0
    7.2776   -1.0000    0.0000 C   0  0  0  0  0  0  0  0  0  0  0  0
    8.2173   -1.3420    0.0000 C   0  0  0  0  0  0  0  0  0  0  0  0
    9.9230   -1.0412    0.0000 C   0  0  0  0  0  0  0  0  0  0  0  0
    8.8097    0.2856    0.0000 C   0  0  0  0  0  0  0  0  0  0  0  0
   10.6890   -0.3984    0.0000 C   0  0  0  0  0  0  0  0  0  0  0  0
    9.5757    0.9284    0.0000 C   0  0  0  0  0  0  0  0  0  0  0  0
   11.2814    1.2292    0.0000 C   0  0  0  0  0  0  0  0  0  0  0  0
   12.2211    0.8872    0.0000 C   0  0  0  0  0  0  0  0  0  0  0  0
   11.1078    2.2140    0.0000 C   0  0  0  0  0  0  0  0  0  0  0  0
   12.9872    1.5299    0.0000 C   0  0  0  0  0  0  0  0  0  0  0  0
   12.5959   -0.0336    0.0000 C   0  0  0  0  0  0  0  0  0  0  0  0
   11.8738    2.8568    0.0000 C   0  0  0  0  0  0  0  0  0  0  0  0
   12.8135    2.5148    0.0000 C   0  0  0  0  0  0  0  0  0  0  0  0
   13.5875    0.0366    0.0000 C   0  0  0  0  0  0  0  0  0  0  0  0
    3.6725   -2.0461    0.0000 H   0  0  0  0  0  0  0  0  0  0  0  0
    4.5960    0.4911    0.0000 H   0  0  0  0  0  0  0  0  0  0  0  0
    2.8105   -1.4764    0.0000 H   0  0  0  0  0  0  0  0  0  0  0  0
    2.1117    1.1316    0.0000 H   0  0  0  0  0  0  0  0  0  0  0  0
    2.7505    1.8256    0.0000 H   0  0  0  0  0  0  0  0  0  0  0  0
    3.6815    1.3852    0.0000 H   0  0  0  0  0  0  0  0  0  0  0  0
    0.9053   -1.7140    0.0000 H   0  0  0  0  0  0  0  0  0  0  0  0
    0.3829    0.0881    0.0000 H   0  0  0  0  0  0  0  0  0  0  0  0
    6.9865   -2.0413    0.0000 H   0  0  0  0  0  0  0  0  0  0  0  0
    6.2015   -2.1797    0.0000 H   0  0  0  0  0  0  0  0  0  0  0  0
    6.8026   -0.6014    0.0000 H   0  0  0  0  0  0  0  0  0  0  0  0
    7.5876   -0.4630    0.0000 H   0  0  0  0  0  0  0  0  0  0  0  0
    8.6922   -1.7405    0.0000 H   0  0  0  0  0  0  0  0  0  0  0  0
    7.9073   -1.8789    0.0000 H   0  0  0  0  0  0  0  0  0  0  0  0
   10.3979   -1.4397    0.0000 H   0  0  0  0  0  0  0  0  0  0  0  0
    9.6130   -1.5782    0.0000 H   0  0  0  0  0  0  0  0  0  0  0  0
    8.2270    0.0736    0.0000 H   0  0  0  0  0  0  0  0  0  0  0  0
    8.4997    0.8226    0.0000 H   0  0  0  0  0  0  0  0  0  0  0  0
   11.2717   -0.1864    0.0000 H   0  0  0  0  0  0  0  0  0  0  0  0
   10.9990   -0.9354    0.0000 H   0  0  0  0  0  0  0  0  0  0  0  0
    9.1008    1.3269    0.0000 H   0  0  0  0  0  0  0  0  0  0  0  0
    9.8857    1.4653    0.0000 H   0  0  0  0  0  0  0  0  0  0  0  0
   10.5252    2.4260    0.0000 H   0  0  0  0  0  0  0  0  0  0  0  0
   12.2683   -0.5599    0.0000 H   0  0  0  0  0  0  0  0  0  0  0  0
   11.7662    3.4674    0.0000 H   0  0  0  0  0  0  0  0  0  0  0  0
   13.2885    2.9133    0.0000 H   0  0  0  0  0  0  0  0  0  0  0  0
   13.9860   -0.4383    0.0000 H   0  0  0  0  0  0  0  0  0  0  0  0
  1 26  1  0  0  0  0
  1 30  1  0  0  0  0
  2 14  2  0  0  0  0
  3 15  2  0  0  0  0
  4 14  1  0  0  0  0
  4 15  1  0  0  0  0
  4 16  1  0  0  0  0
  5 18  1  0  0  0  0
  5 19  1  0  0  0  0
  5 20  1  0  0  0  0
  6 21  1  0  0  0  0
  6 22  1  0  0  0  0
  6 23  1  0  0  0  0
  7  8  1  0  0  0  0
  7  9  1  0  0  0  0
  7 14  1  0  0  0  0
  7 31  1  6  0  0  0
  8 10  1  0  0  0  0
  8 15  1  0  0  0  0
  8 32  1  6  0  0  0
  9 11  1  0  0  0  0
  9 12  1  0  0  0  0
  9 33  1  1  0  0  0
 10 11  1  0  0  0  0
 10 13  1  0  0  0  0
 10 34  1  6  0  0  0
 11 35  1  0  0  0  0
 11 36  1  0  0  0  0
 12 13  2  0  0  0  0
 12 37  1  0  0  0  0
 13 38  1  0  0  0  0
 16 17  1  0  0  0  0
 16 39  1  0  0  0  0
 16 40  1  0  0  0  0
 17 18  1  0  0  0  0
 17 41  1  0  0  0  0
 17 42  1  0  0  0  0
 18 43  1  0  0  0  0
 18 44  1  0  0  0  0
 19 21  1  0  0  0  0
 19 45  1  0  0  0  0
 19 46  1  0  0  0  0
 20 22  1  0  0  0  0
 20 47  1  0  0  0  0
 20 48  1  0  0  0  0
 21 49  1  0  0  0  0
 21 50  1  0  0  0  0
 22 51  1  0  0  0  0
 22 52  1  0  0  0  0
 23 24  2  0  0  0  0
 23 25  1  0  0  0  0
 24 26  1  0  0  0  0
 24 27  1  0  0  0  0
 25 28  2  0  0  0  0
 25 53  1  0  0  0  0
 26 29  2  0  0  0  0
 27 30  2  0  0  0  0
 27 54  1  0  0  0  0
 28 29  1  0  0  0  0
 28 55  1  0  0  0  0
 29 56  1  0  0  0  0
 30 57  1  0  0  0  0
M  END
> <PUBCHEM_COMPOUND_CID>
145987659

> <PUBCHEM_COMPOUND_CANONICALIZED>
1

> <PUBCHEM_CACTVS_COMPLEXITY>
704

> <PUBCHEM_CACTVS_HBOND_ACCEPTOR>
5

> <PUBCHEM_CACTVS_HBOND_DONOR>
0

> <PUBCHEM_CACTVS_ROTATABLE_BOND>
5

> <PUBCHEM_CACTVS_SUBSKEYS>
AAADceB7MABAAAAAAAAAAAAAAAAAAeJECAA8QIAAAAAWAEgB8AAAHgQAAAAADQjF2ASwwcMAAAiMAiVSUACDAIAhChBIiBkIZIgIYDLg0ZGUIAxghiDoyAcdiICOgAAAACAGAAAAAAAAQAwAAQAACAAAAA==

> <PUBCHEM_IUPAC_OPENEYE_NAME>
(1S,2S,6R,7R)-4-[3-[4-(benzothiophen-4-yl)piperazin-1-yl]propyl]-4-azatricyclo[5.2.1.02,6]dec-8-ene-3,5-dione

> <PUBCHEM_IUPAC_CAS_NAME>
(1S,2S,6R,7R)-4-[3-[4-(1-benzothiophen-4-yl)-1-piperazinyl]propyl]-4-azatricyclo[5.2.1.02,6]dec-8-ene-3,5-dione

> <PUBCHEM_IUPAC_NAME_MARKUP>
(1<I>S</I>,2<I>S</I>,6<I>R</I>,7<I>R</I>)-4-[3-[4-(1-benzothiophen-4-yl)piperazin-1-yl]propyl]-4-azatricyclo[5.2.1.0<SUP>2,6</SUP>]dec-8-ene-3,5-dione

> <PUBCHEM_IUPAC_NAME>
(1S,2S,6R,7R)-4-[3-[4-(1-benzothiophen-4-yl)piperazin-1-yl]propyl]-4-azatricyclo[5.2.1.02,6]dec-8-ene-3,5-dione

> <PUBCHEM_IUPAC_SYSTEMATIC_NAME>
(1S,2S,6R,7R)-4-[3-[4-(1-benzothiophen-4-yl)piperazin-1-yl]propyl]-4-azatricyclo[5.2.1.02,6]dec-8-ene-3,5-dione

> <PUBCHEM_IUPAC_TRADITIONAL_NAME>
(1S,2S,6R,7R)-4-[3-[4-(benzothiophen-4-yl)piperazino]propyl]-4-azatricyclo[5.2.1.02,6]dec-8-ene-3,5-quinone

> <PUBCHEM_IUPAC_INCHI>
InChI=1S/C24H27N3O2S/c28-23-21-16-5-6-17(15-16)22(21)24(29)27(23)9-2-8-25-10-12-26(13-11-25)19-3-1-4-20-18(19)7-14-30-20/h1,3-7,14,16-17,21-22H,2,8-13,15H2/t16-,17+,21+,22-

> <PUBCHEM_IUPAC_INCHIKEY>
FLHKIKAYFDTIDG-UWSKWSKGSA-N

> <PUBCHEM_XLOGP3_AA>
3.3

> <PUBCHEM_EXACT_MASS>
421.18239829

> <PUBCHEM_MOLECULAR_FORMULA>
C24H27N3O2S

> <PUBCHEM_MOLECULAR_WEIGHT>
421.6

> <PUBCHEM_OPENEYE_CAN_SMILES>
C1CN(CCN1CCCN2C(=O)C3C4CC(C3C2=O)C=C4)C5=C6C=CSC6=CC=C5

> <PUBCHEM_OPENEYE_ISO_SMILES>
C1CN(CCN1CCCN2C(=O)[C@@H]3[C@@H]4C[C@H]([C@@H]3C2=O)C=C4)C5=C6C=CSC6=CC=C5

> <PUBCHEM_CACTVS_TPSA>
72.1

> <PUBCHEM_MONOISOTOPIC_WEIGHT>
421.18239829

> <PUBCHEM_TOTAL_CHARGE>
0

> <PUBCHEM_HEAVY_ATOM_COUNT>
30

> <PUBCHEM_ATOM_DEF_STEREO_COUNT>
4

> <PUBCHEM_ATOM_UDEF_STEREO_COUNT>
0

> <PUBCHEM_BOND_DEF_STEREO_COUNT>
0

> <PUBCHEM_BOND_UDEF_STEREO_COUNT>
0

> <PUBCHEM_ISOTOPIC_ATOM_COUNT>
0

> <PUBCHEM_COMPONENT_COUNT>
1

> <PUBCHEM_CACTVS_TAUTO_COUNT>
-1

> <PUBCHEM_COORDINATE_TYPE>
1
5
255

> <PUBCHEM_BONDANNOTATIONS>
1  26  8
1  30  8
10  34  6
23  24  8
23  25  8
24  26  8
24  27  8
25  28  8
26  29  8
27  30  8
28  29  8
7  31  6
8  32  6
9  33  5

$$$$
