72699818
  -OEChem-09292322362D

 47 51  0     1  0  0  0  0  0999 V2000
    5.3871    1.6136    0.0000 S   0  0  0  0  0  0  0  0  0  0  0  0
    3.8372   -4.7502    0.0000 O   0  0  0  0  0  0  0  0  0  0  0  0
    5.6405   -3.6904    0.0000 O   0  0  0  0  0  0  0  0  0  0  0  0
    2.9180   -0.0534    0.0000 N   0  0  3  0  0  0  0  0  0  0  0  0
    4.9820    4.2535    0.0000 C   0  0  0  0  0  0  0  0  0  0  0  0
    4.9820    5.2535    0.0000 C   0  0  0  0  0  0  0  0  0  0  0  0
    4.1160    4.7535    0.0000 C   0  0  0  0  0  0  0  0  0  0  0  0
    3.7841   -0.5534    0.0000 C   0  0  1  0  0  0  0  0  0  0  0  0
    5.4820    3.3875    0.0000 C   0  0  0  0  0  0  0  0  0  0  0  0
    4.6501   -0.0534    0.0000 C   0  0  0  0  0  0  0  0  0  0  0  0
    2.9180    0.9466    0.0000 C   0  0  0  0  0  0  0  0  0  0  0  0
    3.7841    1.4466    0.0000 C   0  0  0  0  0  0  0  0  0  0  0  0
    4.6501    0.9466    0.0000 C   0  0  0  0  0  0  0  0  0  0  0  0
    4.9820    2.5214    0.0000 C   0  0  0  0  0  0  0  0  0  0  0  0
    2.0080   -0.5603    0.0000 C   0  0  0  0  0  0  0  0  0  0  0  0
    3.8001   -1.5949    0.0000 C   0  0  0  0  0  0  0  0  0  0  0  0
    2.0000   -1.6019    0.0000 C   0  0  0  0  0  0  0  0  0  0  0  0
    3.9933    2.4184    0.0000 C   0  0  0  0  0  0  0  0  0  0  0  0
    2.9021   -2.1227    0.0000 C   0  0  0  0  0  0  0  0  0  0  0  0
    4.7520   -2.1156    0.0000 C   0  0  0  0  0  0  0  0  0  0  0  0
    2.8937   -3.2077    0.0000 C   0  0  0  0  0  0  0  0  0  0  0  0
    4.7688   -3.2004    0.0000 C   0  0  0  0  0  0  0  0  0  0  0  0
    3.8334   -3.7502    0.0000 C   0  0  0  0  0  0  0  0  0  0  0  0
    2.9731   -5.2535    0.0000 C   0  0  0  0  0  0  0  0  0  0  0  0
    5.5809    4.4140    0.0000 H   0  0  0  0  0  0  0  0  0  0  0  0
    5.5926    5.3612    0.0000 H   0  0  0  0  0  0  0  0  0  0  0  0
    4.7699    5.8361    0.0000 H   0  0  0  0  0  0  0  0  0  0  0  0
    3.7174    5.2284    0.0000 H   0  0  0  0  0  0  0  0  0  0  0  0
    3.7174    4.2785    0.0000 H   0  0  0  0  0  0  0  0  0  0  0  0
    4.5234   -0.9727    0.0000 H   0  0  0  0  0  0  0  0  0  0  0  0
    5.9569    2.9889    0.0000 H   0  0  0  0  0  0  0  0  0  0  0  0
    5.9569    3.7860    0.0000 H   0  0  0  0  0  0  0  0  0  0  0  0
    4.8621   -0.6360    0.0000 H   0  0  0  0  0  0  0  0  0  0  0  0
    5.2607    0.0542    0.0000 H   0  0  0  0  0  0  0  0  0  0  0  0
    2.7060    1.5292    0.0000 H   0  0  0  0  0  0  0  0  0  0  0  0
    2.3074    0.8389    0.0000 H   0  0  0  0  0  0  0  0  0  0  0  0
    1.8035    0.0250    0.0000 H   0  0  0  0  0  0  0  0  0  0  0  0
    1.3964   -0.6617    0.0000 H   0  0  0  0  0  0  0  0  0  0  0  0
    1.3900   -1.4911    0.0000 H   0  0  0  0  0  0  0  0  0  0  0  0
    1.7864   -2.1839    0.0000 H   0  0  0  0  0  0  0  0  0  0  0  0
    3.5792    2.8798    0.0000 H   0  0  0  0  0  0  0  0  0  0  0  0
    5.2829   -1.7953    0.0000 H   0  0  0  0  0  0  0  0  0  0  0  0
    2.3556   -3.5156    0.0000 H   0  0  0  0  0  0  0  0  0  0  0  0
    5.6477   -4.3103    0.0000 H   0  0  0  0  0  0  0  0  0  0  0  0
    2.6610   -4.7178    0.0000 H   0  0  0  0  0  0  0  0  0  0  0  0
    2.4374   -5.5656    0.0000 H   0  0  0  0  0  0  0  0  0  0  0  0
    3.2852   -5.7892    0.0000 H   0  0  0  0  0  0  0  0  0  0  0  0
  1 13  1  0  0  0  0
  1 14  1  0  0  0  0
  2 23  1  0  0  0  0
  2 24  1  0  0  0  0
  3 22  1  0  0  0  0
  3 44  1  0  0  0  0
  4  8  1  0  0  0  0
  4 11  1  0  0  0  0
  4 15  1  0  0  0  0
  5  6  1  0  0  0  0
  5  7  1  0  0  0  0
  5  9  1  0  0  0  0
  5 25  1  0  0  0  0
  6  7  1  0  0  0  0
  6 26  1  0  0  0  0
  6 27  1  0  0  0  0
  7 28  1  0  0  0  0
  7 29  1  0  0  0  0
  8 10  1  0  0  0  0
  8 16  1  0  0  0  0
  8 30  1  6  0  0  0
  9 14  1  0  0  0  0
  9 31  1  0  0  0  0
  9 32  1  0  0  0  0
 10 13  1  0  0  0  0
 10 33  1  0  0  0  0
 10 34  1  0  0  0  0
 11 12  1  0  0  0  0
 11 35  1  0  0  0  0
 11 36  1  0  0  0  0
 12 13  2  0  0  0  0
 12 18  1  0  0  0  0
 14 18  2  0  0  0  0
 15 17  1  0  0  0  0
 15 37  1  0  0  0  0
 15 38  1  0  0  0  0
 16 19  1  0  0  0  0
 16 20  2  0  0  0  0
 17 19  1  0  0  0  0
 17 39  1  0  0  0  0
 17 40  1  0  0  0  0
 18 41  1  0  0  0  0
 19 21  2  0  0  0  0
 20 22  1  0  0  0  0
 20 42  1  0  0  0  0
 21 23  1  0  0  0  0
 21 43  1  0  0  0  0
 22 23  2  0  0  0  0
 24 45  1  0  0  0  0
 24 46  1  0  0  0  0
 24 47  1  0  0  0  0
M  END
> <PUBCHEM_COMPOUND_CID>
72699818

> <PUBCHEM_COMPOUND_CANONICALIZED>
1

> <PUBCHEM_CACTVS_COMPLEXITY>
471

> <PUBCHEM_CACTVS_HBOND_ACCEPTOR>
4

> <PUBCHEM_CACTVS_HBOND_DONOR>
1

> <PUBCHEM_CACTVS_ROTATABLE_BOND>
3

> <PUBCHEM_CACTVS_SUBSKEYS>
AAADceB6MABAAAAAAAAAAAAAGAAAASAAAAA8WIAAAAAAAFixwAAAHgQACAAADSzB2AYyB4MABgiEAiBCAACDCIAgKBBAiBgOjIgNJiKmsRuEcCtkwBGruAew0PMOoAABAAAQQABAAAIAACCAAAAAAAAAAA==

> <PUBCHEM_IUPAC_OPENEYE_NAME>
(1S)-14-(cyclopropylmethyl)-5-methoxy-15-thia-10-azatetracyclo[8.7.0.02,7.012,16]heptadeca-2,4,6,12(16),13-pentaen-4-ol

> <PUBCHEM_IUPAC_CAS_NAME>
(1S)-14-(cyclopropylmethyl)-5-methoxy-15-thia-10-azatetracyclo[8.7.0.02,7.012,16]heptadeca-2,4,6,12(16),13-pentaen-4-ol

> <PUBCHEM_IUPAC_NAME_MARKUP>
(1<I>S</I>)-14-(cyclopropylmethyl)-5-methoxy-15-thia-10-azatetracyclo[8.7.0.0<SUP>2,7</SUP>.0<SUP>12,16</SUP>]heptadeca-2,4,6,12(16),13-pentaen-4-ol

> <PUBCHEM_IUPAC_NAME>
(1S)-14-(cyclopropylmethyl)-5-methoxy-15-thia-10-azatetracyclo[8.7.0.02,7.012,16]heptadeca-2,4,6,12(16),13-pentaen-4-ol

> <PUBCHEM_IUPAC_SYSTEMATIC_NAME>
(1S)-14-(cyclopropylmethyl)-5-methoxy-15-thia-10-azatetracyclo[8.7.0.02,7.012,16]heptadeca-2,4,6,12(16),13-pentaen-4-ol

> <PUBCHEM_IUPAC_TRADITIONAL_NAME>
(1S)-14-(cyclopropylmethyl)-5-methoxy-15-thia-10-azatetracyclo[8.7.0.02,7.012,16]heptadeca-2,4,6,12(16),13-pentaen-4-ol

> <PUBCHEM_IUPAC_INCHI>
InChI=1S/C20H23NO2S/c1-23-19-8-13-4-5-21-11-14-7-15(6-12-2-3-12)24-20(14)10-17(21)16(13)9-18(19)22/h7-9,12,17,22H,2-6,10-11H2,1H3/t17-/m0/s1

> <PUBCHEM_IUPAC_INCHIKEY>
BXKNYHFWOFQBGA-KRWDZBQOSA-N

> <PUBCHEM_XLOGP3_AA>
4.1

> <PUBCHEM_EXACT_MASS>
341.14495015

> <PUBCHEM_MOLECULAR_FORMULA>
C20H23NO2S

> <PUBCHEM_MOLECULAR_WEIGHT>
341.5

> <PUBCHEM_OPENEYE_CAN_SMILES>
COC1=C(C=C2C3CC4=C(CN3CCC2=C1)C=C(S4)CC5CC5)O

> <PUBCHEM_OPENEYE_ISO_SMILES>
COC1=C(C=C2[C@@H]3CC4=C(CN3CCC2=C1)C=C(S4)CC5CC5)O

> <PUBCHEM_CACTVS_TPSA>
60.9

> <PUBCHEM_MONOISOTOPIC_WEIGHT>
341.14495015

> <PUBCHEM_TOTAL_CHARGE>
0

> <PUBCHEM_HEAVY_ATOM_COUNT>
24

> <PUBCHEM_ATOM_DEF_STEREO_COUNT>
1

> <PUBCHEM_ATOM_UDEF_STEREO_COUNT>
0

> <PUBCHEM_BOND_DEF_STEREO_COUNT>
0

> <PUBCHEM_BOND_UDEF_STEREO_COUNT>
0

> <PUBCHEM_ISOTOPIC_ATOM_COUNT>
0

> <PUBCHEM_COMPONENT_COUNT>
1

> <PUBCHEM_CACTVS_TAUTO_COUNT>
-1

> <PUBCHEM_COORDINATE_TYPE>
1
5
255

> <PUBCHEM_BONDANNOTATIONS>
1  13  8
1  14  8
12  13  8
12  18  8
14  18  8
16  19  8
16  20  8
19  21  8
20  22  8
21  23  8
22  23  8
8  30  6

$$$$
