44332686
  -OEChem-09292322212D

 42 43  0     0  0  0  0  0  0999 V2000
    7.1962    4.3170    0.0000 S   0  0  0  0  0  0  0  0  0  0  0  0
    4.5981    0.8170    0.0000 O   0  0  0  0  0  0  0  0  0  0  0  0
    6.6962    5.1830    0.0000 O   0  0  0  0  0  0  0  0  0  0  0  0
    7.6962    3.4510    0.0000 O   0  0  0  0  0  0  0  0  0  0  0  0
    3.7320   -1.6830    0.0000 N   0  0  0  0  0  0  0  0  0  0  0  0
    6.3301    3.8170    0.0000 N   0  0  0  0  0  0  0  0  0  0  0  0
    3.7320   -0.6830    0.0000 C   0  0  0  0  0  0  0  0  0  0  0  0
    2.8660   -2.1830    0.0000 C   0  0  0  0  0  0  0  0  0  0  0  0
    4.5981   -0.1830    0.0000 C   0  0  0  0  0  0  0  0  0  0  0  0
    2.8660   -3.1830    0.0000 C   0  0  0  0  0  0  0  0  0  0  0  0
    5.4641    1.3170    0.0000 C   0  0  0  0  0  0  0  0  0  0  0  0
    6.3301    2.8170    0.0000 C   0  0  0  0  0  0  0  0  0  0  0  0
    5.4641    2.3170    0.0000 C   0  0  0  0  0  0  0  0  0  0  0  0
    6.3301    0.8170    0.0000 C   0  0  0  0  0  0  0  0  0  0  0  0
    7.1962    2.3170    0.0000 C   0  0  0  0  0  0  0  0  0  0  0  0
    3.7320   -3.6830    0.0000 C   0  0  0  0  0  0  0  0  0  0  0  0
    2.0000   -3.6830    0.0000 C   0  0  0  0  0  0  0  0  0  0  0  0
    7.1962    1.3170    0.0000 C   0  0  0  0  0  0  0  0  0  0  0  0
    3.7320   -4.6830    0.0000 C   0  0  0  0  0  0  0  0  0  0  0  0
    2.0000   -4.6830    0.0000 C   0  0  0  0  0  0  0  0  0  0  0  0
    8.0622    4.8170    0.0000 C   0  0  0  0  0  0  0  0  0  0  0  0
    2.8660   -5.1830    0.0000 C   0  0  0  0  0  0  0  0  0  0  0  0
    3.5200   -0.1004    0.0000 H   0  0  0  0  0  0  0  0  0  0  0  0
    3.1215   -0.7907    0.0000 H   0  0  0  0  0  0  0  0  0  0  0  0
    2.6540   -1.6004    0.0000 H   0  0  0  0  0  0  0  0  0  0  0  0
    2.2554   -2.2907    0.0000 H   0  0  0  0  0  0  0  0  0  0  0  0
    4.8101   -0.7656    0.0000 H   0  0  0  0  0  0  0  0  0  0  0  0
    5.2087   -0.0754    0.0000 H   0  0  0  0  0  0  0  0  0  0  0  0
    4.2690   -1.9930    0.0000 H   0  0  0  0  0  0  0  0  0  0  0  0
    4.9272    2.6270    0.0000 H   0  0  0  0  0  0  0  0  0  0  0  0
    5.7932    4.1270    0.0000 H   0  0  0  0  0  0  0  0  0  0  0  0
    6.3301    0.1970    0.0000 H   0  0  0  0  0  0  0  0  0  0  0  0
    7.7331    2.6270    0.0000 H   0  0  0  0  0  0  0  0  0  0  0  0
    4.2690   -3.3730    0.0000 H   0  0  0  0  0  0  0  0  0  0  0  0
    1.4631   -3.3730    0.0000 H   0  0  0  0  0  0  0  0  0  0  0  0
    7.7331    1.0070    0.0000 H   0  0  0  0  0  0  0  0  0  0  0  0
    4.2690   -4.9930    0.0000 H   0  0  0  0  0  0  0  0  0  0  0  0
    1.4631   -4.9930    0.0000 H   0  0  0  0  0  0  0  0  0  0  0  0
    8.3722    4.2800    0.0000 H   0  0  0  0  0  0  0  0  0  0  0  0
    8.5991    5.1270    0.0000 H   0  0  0  0  0  0  0  0  0  0  0  0
    7.7522    5.3539    0.0000 H   0  0  0  0  0  0  0  0  0  0  0  0
    2.8660   -5.8030    0.0000 H   0  0  0  0  0  0  0  0  0  0  0  0
  1  3  2  0  0  0  0
  1  4  2  0  0  0  0
  1  6  1  0  0  0  0
  1 21  1  0  0  0  0
  2  9  1  0  0  0  0
  2 11  1  0  0  0  0
  5  7  1  0  0  0  0
  5  8  1  0  0  0  0
  5 29  1  0  0  0  0
  6 12  1  0  0  0  0
  6 31  1  0  0  0  0
  7  9  1  0  0  0  0
  7 23  1  0  0  0  0
  7 24  1  0  0  0  0
  8 10  1  0  0  0  0
  8 25  1  0  0  0  0
  8 26  1  0  0  0  0
  9 27  1  0  0  0  0
  9 28  1  0  0  0  0
 10 16  2  0  0  0  0
 10 17  1  0  0  0  0
 11 13  1  0  0  0  0
 11 14  2  0  0  0  0
 12 13  2  0  0  0  0
 12 15  1  0  0  0  0
 13 30  1  0  0  0  0
 14 18  1  0  0  0  0
 14 32  1  0  0  0  0
 15 18  2  0  0  0  0
 15 33  1  0  0  0  0
 16 19  1  0  0  0  0
 16 34  1  0  0  0  0
 17 20  2  0  0  0  0
 17 35  1  0  0  0  0
 18 36  1  0  0  0  0
 19 22  2  0  0  0  0
 19 37  1  0  0  0  0
 20 22  1  0  0  0  0
 20 38  1  0  0  0  0
 21 39  1  0  0  0  0
 21 40  1  0  0  0  0
 21 41  1  0  0  0  0
 22 42  1  0  0  0  0
M  END
> <PUBCHEM_COMPOUND_CID>
44332686

> <PUBCHEM_COMPOUND_CANONICALIZED>
1

> <PUBCHEM_CACTVS_COMPLEXITY>
402

> <PUBCHEM_CACTVS_HBOND_ACCEPTOR>
5

> <PUBCHEM_CACTVS_HBOND_DONOR>
2

> <PUBCHEM_CACTVS_ROTATABLE_BOND>
8

> <PUBCHEM_CACTVS_SUBSKEYS>
AAADceB7MABAAAAAAAAAAAAAAAAAAAAAAAAwYAAAAAAAAAABQAAAHgQQQAAADAzhmAayxoLABAKAAiRCQHCCCAAgIgAIiIAObIgOJiKEsZuHOCjm0BmY6AeQ0AEOAAAAAgAAAAAAAAAEAAAAAAAAAAAAAA==

> <PUBCHEM_IUPAC_OPENEYE_NAME>
N-[3-[2-(benzylamino)ethoxy]phenyl]methanesulfonamide

> <PUBCHEM_IUPAC_CAS_NAME>
N-[3-[2-[(phenylmethyl)amino]ethoxy]phenyl]methanesulfonamide

> <PUBCHEM_IUPAC_NAME_MARKUP>
<I>N</I>-[3-[2-(benzylamino)ethoxy]phenyl]methanesulfonamide

> <PUBCHEM_IUPAC_NAME>
N-[3-[2-(benzylamino)ethoxy]phenyl]methanesulfonamide

> <PUBCHEM_IUPAC_SYSTEMATIC_NAME>
N-[3-[2-[(phenylmethyl)amino]ethoxy]phenyl]methanesulfonamide

> <PUBCHEM_IUPAC_TRADITIONAL_NAME>
N-[3-[2-(benzylamino)ethoxy]phenyl]methanesulfonamide

> <PUBCHEM_IUPAC_INCHI>
InChI=1S/C16H20N2O3S/c1-22(19,20)18-15-8-5-9-16(12-15)21-11-10-17-13-14-6-3-2-4-7-14/h2-9,12,17-18H,10-11,13H2,1H3

> <PUBCHEM_IUPAC_INCHIKEY>
ZMVMIDCCNZYMFG-UHFFFAOYSA-N

> <PUBCHEM_XLOGP3_AA>
1.9

> <PUBCHEM_EXACT_MASS>
320.11946368

> <PUBCHEM_MOLECULAR_FORMULA>
C16H20N2O3S

> <PUBCHEM_MOLECULAR_WEIGHT>
320.4

> <PUBCHEM_OPENEYE_CAN_SMILES>
CS(=O)(=O)NC1=CC(=CC=C1)OCCNCC2=CC=CC=C2

> <PUBCHEM_OPENEYE_ISO_SMILES>
CS(=O)(=O)NC1=CC(=CC=C1)OCCNCC2=CC=CC=C2

> <PUBCHEM_CACTVS_TPSA>
75.8

> <PUBCHEM_MONOISOTOPIC_WEIGHT>
320.11946368

> <PUBCHEM_TOTAL_CHARGE>
0

> <PUBCHEM_HEAVY_ATOM_COUNT>
22

> <PUBCHEM_ATOM_DEF_STEREO_COUNT>
0

> <PUBCHEM_ATOM_UDEF_STEREO_COUNT>
0

> <PUBCHEM_BOND_DEF_STEREO_COUNT>
0

> <PUBCHEM_BOND_UDEF_STEREO_COUNT>
0

> <PUBCHEM_ISOTOPIC_ATOM_COUNT>
0

> <PUBCHEM_COMPONENT_COUNT>
1

> <PUBCHEM_CACTVS_TAUTO_COUNT>
-1

> <PUBCHEM_COORDINATE_TYPE>
1
5
255

> <PUBCHEM_BONDANNOTATIONS>
10  16  8
10  17  8
11  13  8
11  14  8
12  13  8
12  15  8
14  18  8
15  18  8
16  19  8
17  20  8
19  22  8
20  22  8

$$$$
