76324757
  -OEChem-09292322472D

 61 65  0     1  0  0  0  0  0999 V2000
    2.0000   -0.7363    0.0000 F   0  0  0  0  0  0  0  0  0  0  0  0
   10.6603    2.2637    0.0000 O   0  0  0  0  0  0  0  0  0  0  0  0
    5.4641    2.2637    0.0000 O   0  0  0  0  0  0  0  0  0  0  0  0
    8.0622   -0.2363    0.0000 N   0  0  0  0  0  0  0  0  0  0  0  0
    9.7942   -0.2363    0.0000 C   0  0  3  0  0  0  0  0  0  0  0  0
    8.9282   -0.7363    0.0000 C   0  0  0  0  0  0  0  0  0  0  0  0
    6.3301    0.7637    0.0000 C   0  0  0  0  0  0  0  0  0  0  0  0
    8.0622    0.7637    0.0000 C   0  0  0  0  0  0  0  0  0  0  0  0
    7.1962   -0.7363    0.0000 C   0  0  0  0  0  0  0  0  0  0  0  0
    7.1962    1.2637    0.0000 C   0  0  0  0  0  0  0  0  0  0  0  0
    6.3301   -0.2363    0.0000 C   0  0  0  0  0  0  0  0  0  0  0  0
   10.6603   -0.7363    0.0000 C   0  0  0  0  0  0  0  0  0  0  0  0
    9.7942    0.7637    0.0000 C   0  0  0  0  0  0  0  0  0  0  0  0
   11.5263   -0.2363    0.0000 C   0  0  0  0  0  0  0  0  0  0  0  0
   10.6603    1.2637    0.0000 C   0  0  0  0  0  0  0  0  0  0  0  0
    5.4641    1.2637    0.0000 C   0  0  0  0  0  0  0  0  0  0  0  0
   11.5263    0.7637    0.0000 C   0  0  0  0  0  0  0  0  0  0  0  0
   12.4202   -0.7709    0.0000 C   0  0  0  0  0  0  0  0  0  0  0  0
   12.4202    1.2984    0.0000 C   0  0  0  0  0  0  0  0  0  0  0  0
    4.5981    0.7637    0.0000 C   0  0  0  0  0  0  0  0  0  0  0  0
   13.3263   -0.2571    0.0000 C   0  0  0  0  0  0  0  0  0  0  0  0
   13.3263    0.7846    0.0000 C   0  0  0  0  0  0  0  0  0  0  0  0
    4.5981   -0.2363    0.0000 C   0  0  0  0  0  0  0  0  0  0  0  0
    3.7320    1.2637    0.0000 C   0  0  0  0  0  0  0  0  0  0  0  0
   14.1904   -0.7604    0.0000 C   0  0  0  0  0  0  0  0  0  0  0  0
    3.7320   -0.7363    0.0000 C   0  0  0  0  0  0  0  0  0  0  0  0
    2.8660    0.7637    0.0000 C   0  0  0  0  0  0  0  0  0  0  0  0
   15.0583   -0.2638    0.0000 C   0  0  0  0  0  0  0  0  0  0  0  0
   14.1865   -1.7604    0.0000 C   0  0  0  0  0  0  0  0  0  0  0  0
    2.8660   -0.2363    0.0000 C   0  0  0  0  0  0  0  0  0  0  0  0
   15.9224   -0.7671    0.0000 C   0  0  0  0  0  0  0  0  0  0  0  0
   15.0506   -2.2637    0.0000 C   0  0  0  0  0  0  0  0  0  0  0  0
   15.9186   -1.7671    0.0000 C   0  0  0  0  0  0  0  0  0  0  0  0
    9.2573    0.0737    0.0000 H   0  0  0  0  0  0  0  0  0  0  0  0
    8.5297   -1.2112    0.0000 H   0  0  0  0  0  0  0  0  0  0  0  0
    9.3267   -1.2112    0.0000 H   0  0  0  0  0  0  0  0  0  0  0  0
    5.7932    0.4537    0.0000 H   0  0  0  0  0  0  0  0  0  0  0  0
    8.6728    0.6561    0.0000 H   0  0  0  0  0  0  0  0  0  0  0  0
    8.2742    1.3464    0.0000 H   0  0  0  0  0  0  0  0  0  0  0  0
    6.7976   -1.2112    0.0000 H   0  0  0  0  0  0  0  0  0  0  0  0
    7.5947   -1.2112    0.0000 H   0  0  0  0  0  0  0  0  0  0  0  0
    7.5947    1.7387    0.0000 H   0  0  0  0  0  0  0  0  0  0  0  0
    6.7976    1.7387    0.0000 H   0  0  0  0  0  0  0  0  0  0  0  0
    5.7196   -0.1286    0.0000 H   0  0  0  0  0  0  0  0  0  0  0  0
    6.1181   -0.8189    0.0000 H   0  0  0  0  0  0  0  0  0  0  0  0
   10.2617   -1.2112    0.0000 H   0  0  0  0  0  0  0  0  0  0  0  0
   11.0588   -1.2112    0.0000 H   0  0  0  0  0  0  0  0  0  0  0  0
    9.5822    1.3464    0.0000 H   0  0  0  0  0  0  0  0  0  0  0  0
    9.1836    0.6561    0.0000 H   0  0  0  0  0  0  0  0  0  0  0  0
   12.4131   -1.3909    0.0000 H   0  0  0  0  0  0  0  0  0  0  0  0
   12.4131    1.9184    0.0000 H   0  0  0  0  0  0  0  0  0  0  0  0
   13.8620    1.0966    0.0000 H   0  0  0  0  0  0  0  0  0  0  0  0
    5.1350   -0.5463    0.0000 H   0  0  0  0  0  0  0  0  0  0  0  0
    3.7320    1.8837    0.0000 H   0  0  0  0  0  0  0  0  0  0  0  0
    3.7320   -1.3563    0.0000 H   0  0  0  0  0  0  0  0  0  0  0  0
    2.3291    1.0737    0.0000 H   0  0  0  0  0  0  0  0  0  0  0  0
   15.0607    0.3562    0.0000 H   0  0  0  0  0  0  0  0  0  0  0  0
   13.6484   -2.0683    0.0000 H   0  0  0  0  0  0  0  0  0  0  0  0
   16.4605   -0.4592    0.0000 H   0  0  0  0  0  0  0  0  0  0  0  0
   15.0482   -2.8837    0.0000 H   0  0  0  0  0  0  0  0  0  0  0  0
   16.4543   -2.0792    0.0000 H   0  0  0  0  0  0  0  0  0  0  0  0
  1 30  1  0  0  0  0
  2 15  2  0  0  0  0
  3 16  2  0  0  0  0
  4  6  1  0  0  0  0
  4  8  1  0  0  0  0
  4  9  1  0  0  0  0
  5  6  1  0  0  0  0
  5 12  1  0  0  0  0
  5 13  1  0  0  0  0
  5 34  1  0  0  0  0
  6 35  1  0  0  0  0
  6 36  1  0  0  0  0
  7 10  1  0  0  0  0
  7 11  1  0  0  0  0
  7 16  1  0  0  0  0
  7 37  1  0  0  0  0
  8 10  1  0  0  0  0
  8 38  1  0  0  0  0
  8 39  1  0  0  0  0
  9 11  1  0  0  0  0
  9 40  1  0  0  0  0
  9 41  1  0  0  0  0
 10 42  1  0  0  0  0
 10 43  1  0  0  0  0
 11 44  1  0  0  0  0
 11 45  1  0  0  0  0
 12 14  1  0  0  0  0
 12 46  1  0  0  0  0
 12 47  1  0  0  0  0
 13 15  1  0  0  0  0
 13 48  1  0  0  0  0
 13 49  1  0  0  0  0
 14 17  2  0  0  0  0
 14 18  1  0  0  0  0
 15 17  1  0  0  0  0
 16 20  1  0  0  0  0
 17 19  1  0  0  0  0
 18 21  2  0  0  0  0
 18 50  1  0  0  0  0
 19 22  2  0  0  0  0
 19 51  1  0  0  0  0
 20 23  2  0  0  0  0
 20 24  1  0  0  0  0
 21 22  1  0  0  0  0
 21 25  1  0  0  0  0
 22 52  1  0  0  0  0
 23 26  1  0  0  0  0
 23 53  1  0  0  0  0
 24 27  2  0  0  0  0
 24 54  1  0  0  0  0
 25 28  2  0  0  0  0
 25 29  1  0  0  0  0
 26 30  2  0  0  0  0
 26 55  1  0  0  0  0
 27 30  1  0  0  0  0
 27 56  1  0  0  0  0
 28 31  1  0  0  0  0
 28 57  1  0  0  0  0
 29 32  2  0  0  0  0
 29 58  1  0  0  0  0
 31 33  2  0  0  0  0
 31 59  1  0  0  0  0
 32 33  1  0  0  0  0
 32 60  1  0  0  0  0
 33 61  1  0  0  0  0
M  END
> <PUBCHEM_COMPOUND_CID>
76324757

> <PUBCHEM_COMPOUND_CANONICALIZED>
1

> <PUBCHEM_CACTVS_COMPLEXITY>
673

> <PUBCHEM_CACTVS_HBOND_ACCEPTOR>
4

> <PUBCHEM_CACTVS_HBOND_DONOR>
0

> <PUBCHEM_CACTVS_ROTATABLE_BOND>
5

> <PUBCHEM_CACTVS_SUBSKEYS>
AAADceB6MQAAAAAAAAAAAAAAAAAAAAAAAAA8YMGCAAAAAADBUAAAHwAAAAAADQTBmAwwAIMAAACIAqBSAAACAAAkAAAIiAEIAMgIIDKAlRCEIQAggACIiYcciMCOwAACAAAQAACAAAQAACAAAAAAAAAAAA==

> <PUBCHEM_IUPAC_OPENEYE_NAME>
3-[[4-(4-fluorobenzoyl)-1-piperidyl]methyl]-6-phenyl-tetralin-1-one

> <PUBCHEM_IUPAC_CAS_NAME>
3-[[4-[(4-fluorophenyl)-oxomethyl]-1-piperidinyl]methyl]-6-phenyl-3,4-dihydro-2H-naphthalen-1-one

> <PUBCHEM_IUPAC_NAME_MARKUP>
3-[[4-(4-fluorobenzoyl)piperidin-1-yl]methyl]-6-phenyl-3,4-dihydro-2<I>H</I>-naphthalen-1-one

> <PUBCHEM_IUPAC_NAME>
3-[[4-(4-fluorobenzoyl)piperidin-1-yl]methyl]-6-phenyl-3,4-dihydro-2H-naphthalen-1-one

> <PUBCHEM_IUPAC_SYSTEMATIC_NAME>
3-[[4-(4-fluorophenyl)carbonylpiperidin-1-yl]methyl]-6-phenyl-3,4-dihydro-2H-naphthalen-1-one

> <PUBCHEM_IUPAC_TRADITIONAL_NAME>
3-[[4-(4-fluorobenzoyl)piperidino]methyl]-6-phenyl-tetralin-1-one

> <PUBCHEM_IUPAC_INCHI>
InChI=1S/C29H28FNO2/c30-26-9-6-22(7-10-26)29(33)23-12-14-31(15-13-23)19-20-16-25-18-24(21-4-2-1-3-5-21)8-11-27(25)28(32)17-20/h1-11,18,20,23H,12-17,19H2

> <PUBCHEM_IUPAC_INCHIKEY>
GAGGYGBCJAECAZ-UHFFFAOYSA-N

> <PUBCHEM_XLOGP3_AA>
5.5

> <PUBCHEM_EXACT_MASS>
441.21040730

> <PUBCHEM_MOLECULAR_FORMULA>
C29H28FNO2

> <PUBCHEM_MOLECULAR_WEIGHT>
441.5

> <PUBCHEM_OPENEYE_CAN_SMILES>
C1CN(CCC1C(=O)C2=CC=C(C=C2)F)CC3CC4=C(C=CC(=C4)C5=CC=CC=C5)C(=O)C3

> <PUBCHEM_OPENEYE_ISO_SMILES>
C1CN(CCC1C(=O)C2=CC=C(C=C2)F)CC3CC4=C(C=CC(=C4)C5=CC=CC=C5)C(=O)C3

> <PUBCHEM_CACTVS_TPSA>
37.4

> <PUBCHEM_MONOISOTOPIC_WEIGHT>
441.21040730

> <PUBCHEM_TOTAL_CHARGE>
0

> <PUBCHEM_HEAVY_ATOM_COUNT>
33

> <PUBCHEM_ATOM_DEF_STEREO_COUNT>
0

> <PUBCHEM_ATOM_UDEF_STEREO_COUNT>
1

> <PUBCHEM_BOND_DEF_STEREO_COUNT>
0

> <PUBCHEM_BOND_UDEF_STEREO_COUNT>
0

> <PUBCHEM_ISOTOPIC_ATOM_COUNT>
0

> <PUBCHEM_COMPONENT_COUNT>
1

> <PUBCHEM_CACTVS_TAUTO_COUNT>
-1

> <PUBCHEM_COORDINATE_TYPE>
1
5
255

> <PUBCHEM_BONDANNOTATIONS>
14  17  8
14  18  8
17  19  8
18  21  8
19  22  8
20  23  8
20  24  8
21  22  8
23  26  8
24  27  8
25  28  8
25  29  8
26  30  8
27  30  8
28  31  8
29  32  8
31  33  8
32  33  8
5  6  3

$$$$
