155563374
  -OEChem-09292322412D

 47 51  0     0  0  0  0  0  0999 V2000
    2.0000    2.0115    0.0000 Cl  0  0  0  0  0  0  0  0  0  0  0  0
    6.7093    1.4877    0.0000 S   0  0  0  0  0  0  0  0  0  0  0  0
    6.2093    2.3537    0.0000 O   0  0  0  0  0  0  0  0  0  0  0  0
    7.2093    0.6217    0.0000 O   0  0  0  0  0  0  0  0  0  0  0  0
    5.8433    0.9877    0.0000 N   0  0  0  0  0  0  0  0  0  0  0  0
    3.5577   -2.9551    0.0000 N   0  0  0  0  0  0  0  0  0  0  0  0
   10.2013    1.4530    0.0000 N   0  0  0  0  0  0  0  0  0  0  0  0
    4.7684   -0.2102    0.0000 C   0  0  0  0  0  0  0  0  0  0  0  0
    4.3649   -1.1252    0.0000 C   0  0  0  0  0  0  0  0  0  0  0  0
    4.2677    0.6485    0.0000 C   0  0  0  0  0  0  0  0  0  0  0  0
    4.9355    1.3928    0.0000 C   0  0  0  0  0  0  0  0  0  0  0  0
    4.9554   -1.9322    0.0000 C   0  0  0  0  0  0  0  0  0  0  0  0
    5.7402   -0.0010    0.0000 C   0  0  0  0  0  0  0  0  0  0  0  0
    4.5519   -2.8471    0.0000 C   0  0  0  0  0  0  0  0  0  0  0  0
    3.3707   -1.2332    0.0000 C   0  0  0  0  0  0  0  0  0  0  0  0
    2.9671   -2.1481    0.0000 C   0  0  0  0  0  0  0  0  0  0  0  0
    3.2892    0.8547    0.0000 C   0  0  0  0  0  0  0  0  0  0  0  0
    7.5754    1.9877    0.0000 C   0  0  0  0  0  0  0  0  0  0  0  0
    4.6249    2.3433    0.0000 C   0  0  0  0  0  0  0  0  0  0  0  0
    2.9785    1.8052    0.0000 C   0  0  0  0  0  0  0  0  0  0  0  0
    3.6464    2.5495    0.0000 C   0  0  0  0  0  0  0  0  0  0  0  0
    8.4414    1.4877    0.0000 C   0  0  0  0  0  0  0  0  0  0  0  0
    7.5754    2.9877    0.0000 C   0  0  0  0  0  0  0  0  0  0  0  0
    9.3074    1.9877    0.0000 C   0  0  0  0  0  0  0  0  0  0  0  0
    9.3074    2.9877    0.0000 C   0  0  0  0  0  0  0  0  0  0  0  0
    8.4414    3.4877    0.0000 C   0  0  0  0  0  0  0  0  0  0  0  0
   10.2013    3.5224    0.0000 C   0  0  0  0  0  0  0  0  0  0  0  0
   11.1074    3.0085    0.0000 C   0  0  0  0  0  0  0  0  0  0  0  0
   11.1074    1.9669    0.0000 C   0  0  0  0  0  0  0  0  0  0  0  0
    5.4706   -2.2771    0.0000 H   0  0  0  0  0  0  0  0  0  0  0  0
    5.3846   -1.4847    0.0000 H   0  0  0  0  0  0  0  0  0  0  0  0
    6.2017   -0.4151    0.0000 H   0  0  0  0  0  0  0  0  0  0  0  0
    4.5108   -3.4658    0.0000 H   0  0  0  0  0  0  0  0  0  0  0  0
    5.1540   -2.9950    0.0000 H   0  0  0  0  0  0  0  0  0  0  0  0
    3.0046   -0.7328    0.0000 H   0  0  0  0  0  0  0  0  0  0  0  0
    2.4519   -1.8032    0.0000 H   0  0  0  0  0  0  0  0  0  0  0  0
    2.5380   -2.5956    0.0000 H   0  0  0  0  0  0  0  0  0  0  0  0
    3.3075   -3.5224    0.0000 H   0  0  0  0  0  0  0  0  0  0  0  0
    2.8751    0.3933    0.0000 H   0  0  0  0  0  0  0  0  0  0  0  0
    5.0389    2.8048    0.0000 H   0  0  0  0  0  0  0  0  0  0  0  0
    3.4537    3.1389    0.0000 H   0  0  0  0  0  0  0  0  0  0  0  0
    8.4414    0.8677    0.0000 H   0  0  0  0  0  0  0  0  0  0  0  0
    7.0384    3.2977    0.0000 H   0  0  0  0  0  0  0  0  0  0  0  0
    8.4414    4.1077    0.0000 H   0  0  0  0  0  0  0  0  0  0  0  0
   10.1942    4.1423    0.0000 H   0  0  0  0  0  0  0  0  0  0  0  0
   11.6432    3.3206    0.0000 H   0  0  0  0  0  0  0  0  0  0  0  0
   11.6432    1.6548    0.0000 H   0  0  0  0  0  0  0  0  0  0  0  0
  1 20  1  0  0  0  0
  2  3  2  0  0  0  0
  2  4  2  0  0  0  0
  2  5  1  0  0  0  0
  2 18  1  0  0  0  0
  5 11  1  0  0  0  0
  5 13  1  0  0  0  0
  6 14  1  0  0  0  0
  6 16  1  0  0  0  0
  6 38  1  0  0  0  0
  7 24  1  0  0  0  0
  7 29  2  0  0  0  0
  8  9  1  0  0  0  0
  8 10  1  0  0  0  0
  8 13  2  0  0  0  0
  9 12  1  0  0  0  0
  9 15  2  0  0  0  0
 10 11  2  0  0  0  0
 10 17  1  0  0  0  0
 11 19  1  0  0  0  0
 12 14  1  0  0  0  0
 12 30  1  0  0  0  0
 12 31  1  0  0  0  0
 13 32  1  0  0  0  0
 14 33  1  0  0  0  0
 14 34  1  0  0  0  0
 15 16  1  0  0  0  0
 15 35  1  0  0  0  0
 16 36  1  0  0  0  0
 16 37  1  0  0  0  0
 17 20  2  0  0  0  0
 17 39  1  0  0  0  0
 18 22  2  0  0  0  0
 18 23  1  0  0  0  0
 19 21  2  0  0  0  0
 19 40  1  0  0  0  0
 20 21  1  0  0  0  0
 21 41  1  0  0  0  0
 22 24  1  0  0  0  0
 22 42  1  0  0  0  0
 23 26  2  0  0  0  0
 23 43  1  0  0  0  0
 24 25  2  0  0  0  0
 25 26  1  0  0  0  0
 25 27  1  0  0  0  0
 26 44  1  0  0  0  0
 27 28  2  0  0  0  0
 27 45  1  0  0  0  0
 28 29  1  0  0  0  0
 28 46  1  0  0  0  0
 29 47  1  0  0  0  0
M  END
> <PUBCHEM_COMPOUND_CID>
155563374

> <PUBCHEM_COMPOUND_CANONICALIZED>
1

> <PUBCHEM_CACTVS_COMPLEXITY>
737

> <PUBCHEM_CACTVS_HBOND_ACCEPTOR>
4

> <PUBCHEM_CACTVS_HBOND_DONOR>
1

> <PUBCHEM_CACTVS_ROTATABLE_BOND>
3

> <PUBCHEM_CACTVS_SUBSKEYS>
AAADceB7MABEAAAAAAAAAAAAAAAAAWAAAAA8YIEAAAAAAFix/gAAHAYQQAAADArBXiQ8wfLIEAKgAzRnRHDCgDAxByAI2Lg4ZpgIIOLBk5GEIAxgkADIyAcQgMAOkABAICACAAAgAIBAQAQAAAAAAAAAAA==

> <PUBCHEM_IUPAC_OPENEYE_NAME>
7-[5-chloro-3-(1,2,3,6-tetrahydropyridin-4-yl)indol-1-yl]sulfonylquinoline

> <PUBCHEM_IUPAC_CAS_NAME>
7-[[5-chloro-3-(1,2,3,6-tetrahydropyridin-4-yl)-1-indolyl]sulfonyl]quinoline

> <PUBCHEM_IUPAC_NAME_MARKUP>
7-[5-chloro-3-(1,2,3,6-tetrahydropyridin-4-yl)indol-1-yl]sulfonylquinoline

> <PUBCHEM_IUPAC_NAME>
7-[5-chloro-3-(1,2,3,6-tetrahydropyridin-4-yl)indol-1-yl]sulfonylquinoline

> <PUBCHEM_IUPAC_SYSTEMATIC_NAME>
7-[5-chloranyl-3-(1,2,3,6-tetrahydropyridin-4-yl)indol-1-yl]sulfonylquinoline

> <PUBCHEM_IUPAC_TRADITIONAL_NAME>
7-[5-chloro-3-(1,2,3,6-tetrahydropyridin-4-yl)indol-1-yl]sulfonylquinoline

> <PUBCHEM_IUPAC_INCHI>
InChI=1S/C22H18ClN3O2S/c23-17-4-6-22-19(12-17)20(15-7-10-24-11-8-15)14-26(22)29(27,28)18-5-3-16-2-1-9-25-21(16)13-18/h1-7,9,12-14,24H,8,10-11H2

> <PUBCHEM_IUPAC_INCHIKEY>
MSWZLRLBKLDMKM-UHFFFAOYSA-N

> <PUBCHEM_XLOGP3_AA>
3.9

> <PUBCHEM_EXACT_MASS>
423.0808257

> <PUBCHEM_MOLECULAR_FORMULA>
C22H18ClN3O2S

> <PUBCHEM_MOLECULAR_WEIGHT>
423.9

> <PUBCHEM_OPENEYE_CAN_SMILES>
C1CNCC=C1C2=CN(C3=C2C=C(C=C3)Cl)S(=O)(=O)C4=CC5=C(C=CC=N5)C=C4

> <PUBCHEM_OPENEYE_ISO_SMILES>
C1CNCC=C1C2=CN(C3=C2C=C(C=C3)Cl)S(=O)(=O)C4=CC5=C(C=CC=N5)C=C4

> <PUBCHEM_CACTVS_TPSA>
72.4

> <PUBCHEM_MONOISOTOPIC_WEIGHT>
423.0808257

> <PUBCHEM_TOTAL_CHARGE>
0

> <PUBCHEM_HEAVY_ATOM_COUNT>
29

> <PUBCHEM_ATOM_DEF_STEREO_COUNT>
0

> <PUBCHEM_ATOM_UDEF_STEREO_COUNT>
0

> <PUBCHEM_BOND_DEF_STEREO_COUNT>
0

> <PUBCHEM_BOND_UDEF_STEREO_COUNT>
0

> <PUBCHEM_ISOTOPIC_ATOM_COUNT>
0

> <PUBCHEM_COMPONENT_COUNT>
1

> <PUBCHEM_CACTVS_TAUTO_COUNT>
-1

> <PUBCHEM_COORDINATE_TYPE>
1
5
255

> <PUBCHEM_BONDANNOTATIONS>
10  11  8
10  17  8
11  19  8
17  20  8
18  22  8
18  23  8
19  21  8
20  21  8
22  24  8
23  26  8
24  25  8
25  26  8
25  27  8
27  28  8
28  29  8
5  11  8
5  13  8
7  24  8
7  29  8
8  10  8
8  13  8

$$$$
