45260657
  -OEChem-09292322192D

 53 55  0     0  0  0  0  0  0999 V2000
    4.6249    0.0000    0.0000 Cl  0  0  0  0  0  0  0  0  0  0  0  0
   10.2499    8.5598    0.0000 F   0  0  0  0  0  0  0  0  0  0  0  0
    6.0627    4.8996    0.0000 O   0  0  0  0  0  0  0  0  0  0  0  0
    5.7537    7.4687    0.0000 O   0  0  0  0  0  0  0  0  0  0  0  0
    3.4750    5.7087    0.0000 N   0  0  0  0  0  0  0  0  0  0  0  0
    1.9750    4.8426    0.0000 C   0  0  0  0  0  0  0  0  0  0  0  0
    5.4750    5.7087    0.0000 C   0  0  0  0  0  0  0  0  0  0  0  0
    2.4750    5.7087    0.0000 C   0  0  0  0  0  0  0  0  0  0  0  0
    4.9750    6.5747    0.0000 C   0  0  0  0  0  0  0  0  0  0  0  0
    4.9750    4.8426    0.0000 C   0  0  0  0  0  0  0  0  0  0  0  0
    3.9750    6.5747    0.0000 C   0  0  0  0  0  0  0  0  0  0  0  0
    3.9750    4.8426    0.0000 C   0  0  0  0  0  0  0  0  0  0  0  0
    0.9749    4.8426    0.0000 C   0  0  0  0  0  0  0  0  0  0  0  0
    2.4750    3.9766    0.0000 C   0  0  0  0  0  0  0  0  0  0  0  0
    0.4749    3.9766    0.0000 C   0  0  0  0  0  0  0  0  0  0  0  0
    1.9750    3.1106    0.0000 C   0  0  0  0  0  0  0  0  0  0  0  0
    0.9749    3.1106    0.0000 C   0  0  0  0  0  0  0  0  0  0  0  0
    6.0627    6.5177    0.0000 C   0  0  0  0  0  0  0  0  0  0  0  0
    7.0138    6.2087    0.0000 C   0  0  0  0  0  0  0  0  0  0  0  0
    7.0138    5.2087    0.0000 C   0  0  0  0  0  0  0  0  0  0  0  0
    7.8228    6.7964    0.0000 C   0  0  0  0  0  0  0  0  0  0  0  0
    8.7364    6.3897    0.0000 C   0  0  0  0  0  0  0  0  0  0  0  0
    7.7183    7.7910    0.0000 C   0  0  0  0  0  0  0  0  0  0  0  0
    9.5454    6.9775    0.0000 C   0  0  0  0  0  0  0  0  0  0  0  0
    8.5273    8.3788    0.0000 C   0  0  0  0  0  0  0  0  0  0  0  0
    9.4408    7.9720    0.0000 C   0  0  0  0  0  0  0  0  0  0  0  0
    2.5950    4.8426    0.0000 H   0  0  0  0  0  0  0  0  0  0  0  0
    2.5826    6.3192    0.0000 H   0  0  0  0  0  0  0  0  0  0  0  0
    1.8923    5.9207    0.0000 H   0  0  0  0  0  0  0  0  0  0  0  0
    5.5576    6.7867    0.0000 H   0  0  0  0  0  0  0  0  0  0  0  0
    4.8673    7.1853    0.0000 H   0  0  0  0  0  0  0  0  0  0  0  0
    4.8673    4.2320    0.0000 H   0  0  0  0  0  0  0  0  0  0  0  0
    5.5576    4.6306    0.0000 H   0  0  0  0  0  0  0  0  0  0  0  0
    4.0826    7.1853    0.0000 H   0  0  0  0  0  0  0  0  0  0  0  0
    3.3923    6.7867    0.0000 H   0  0  0  0  0  0  0  0  0  0  0  0
    3.3923    4.6306    0.0000 H   0  0  0  0  0  0  0  0  0  0  0  0
    4.0826    4.2320    0.0000 H   0  0  0  0  0  0  0  0  0  0  0  0
    1.0826    5.4532    0.0000 H   0  0  0  0  0  0  0  0  0  0  0  0
    0.3923    5.0547    0.0000 H   0  0  0  0  0  0  0  0  0  0  0  0
    2.9499    3.5781    0.0000 H   0  0  0  0  0  0  0  0  0  0  0  0
    2.9499    4.3751    0.0000 H   0  0  0  0  0  0  0  0  0  0  0  0
    0.0000    4.3751    0.0000 H   0  0  0  0  0  0  0  0  0  0  0  0
    0.0000    3.5781    0.0000 H   0  0  0  0  0  0  0  0  0  0  0  0
    1.8673    2.5000    0.0000 H   0  0  0  0  0  0  0  0  0  0  0  0
    2.5576    2.8985    0.0000 H   0  0  0  0  0  0  0  0  0  0  0  0
    0.3923    2.8985    0.0000 H   0  0  0  0  0  0  0  0  0  0  0  0
    1.0826    2.5000    0.0000 H   0  0  0  0  0  0  0  0  0  0  0  0
    7.5154    4.8442    0.0000 H   0  0  0  0  0  0  0  0  0  0  0  0
    8.8012    5.7731    0.0000 H   0  0  0  0  0  0  0  0  0  0  0  0
    7.1519    8.0431    0.0000 H   0  0  0  0  0  0  0  0  0  0  0  0
   10.1118    6.7253    0.0000 H   0  0  0  0  0  0  0  0  0  0  0  0
    8.4625    8.9954    0.0000 H   0  0  0  0  0  0  0  0  0  0  0  0
    5.6249    0.0000    0.0000 H   0  0  0  0  0  0  0  0  0  0  0  0
  1 53  1  0  0  0  0
  2 26  1  0  0  0  0
  3  7  1  0  0  0  0
  3 20  1  0  0  0  0
  4 18  2  0  0  0  0
  5  8  1  0  0  0  0
  5 11  1  0  0  0  0
  5 12  1  0  0  0  0
  6  8  1  0  0  0  0
  6 13  1  0  0  0  0
  6 14  1  0  0  0  0
  6 27  1  0  0  0  0
  7  9  1  0  0  0  0
  7 10  1  0  0  0  0
  7 18  1  0  0  0  0
  8 28  1  0  0  0  0
  8 29  1  0  0  0  0
  9 11  1  0  0  0  0
  9 30  1  0  0  0  0
  9 31  1  0  0  0  0
 10 12  1  0  0  0  0
 10 32  1  0  0  0  0
 10 33  1  0  0  0  0
 11 34  1  0  0  0  0
 11 35  1  0  0  0  0
 12 36  1  0  0  0  0
 12 37  1  0  0  0  0
 13 15  1  0  0  0  0
 13 38  1  0  0  0  0
 13 39  1  0  0  0  0
 14 16  1  0  0  0  0
 14 40  1  0  0  0  0
 14 41  1  0  0  0  0
 15 17  1  0  0  0  0
 15 42  1  0  0  0  0
 15 43  1  0  0  0  0
 16 17  1  0  0  0  0
 16 44  1  0  0  0  0
 16 45  1  0  0  0  0
 17 46  1  0  0  0  0
 17 47  1  0  0  0  0
 18 19  1  0  0  0  0
 19 20  2  0  0  0  0
 19 21  1  0  0  0  0
 20 48  1  0  0  0  0
 21 22  2  0  0  0  0
 21 23  1  0  0  0  0
 22 24  1  0  0  0  0
 22 49  1  0  0  0  0
 23 25  2  0  0  0  0
 23 50  1  0  0  0  0
 24 26  2  0  0  0  0
 24 51  1  0  0  0  0
 25 26  1  0  0  0  0
 25 52  1  0  0  0  0
M  END
> <PUBCHEM_COMPOUND_CID>
45260657

> <PUBCHEM_COMPOUND_CANONICALIZED>
1

> <PUBCHEM_CACTVS_COMPLEXITY>
510

> <PUBCHEM_CACTVS_HBOND_ACCEPTOR>
4

> <PUBCHEM_CACTVS_HBOND_DONOR>
1

> <PUBCHEM_CACTVS_ROTATABLE_BOND>
3

> <PUBCHEM_CACTVS_SUBSKEYS>
AAADceB6MQAEAAAAAAAAAAAAAAAAAQAAAAA8YIAAAAAAAAABAAAAHwAAAAAADUThmA4wAIMABACIAqBSAAICCAAgIAAIiAFIAMgIIDKAlRSEIAAmwACIiIecyOCOAAAAAAAAAAAAAAAAAAAAAAAAAAAAAA==

> <PUBCHEM_IUPAC_OPENEYE_NAME>
8-(cyclohexylmethyl)-3-(4-fluorophenyl)-1-oxa-8-azaspiro[4.5]dec-2-en-4-one;hydrochloride

> <PUBCHEM_IUPAC_CAS_NAME>
8-(cyclohexylmethyl)-3-(4-fluorophenyl)-1-oxa-8-azaspiro[4.5]dec-2-en-4-one;hydrochloride

> <PUBCHEM_IUPAC_NAME_MARKUP>
8-(cyclohexylmethyl)-3-(4-fluorophenyl)-1-oxa-8-azaspiro[4.5]dec-2-en-4-one;hydrochloride

> <PUBCHEM_IUPAC_NAME>
8-(cyclohexylmethyl)-3-(4-fluorophenyl)-1-oxa-8-azaspiro[4.5]dec-2-en-4-one;hydrochloride

> <PUBCHEM_IUPAC_SYSTEMATIC_NAME>
8-(cyclohexylmethyl)-3-(4-fluorophenyl)-1-oxa-8-azaspiro[4.5]dec-2-en-4-one;hydrochloride

> <PUBCHEM_IUPAC_TRADITIONAL_NAME>
8-(cyclohexylmethyl)-3-(4-fluorophenyl)-1-oxa-8-azaspiro[4.5]dec-2-en-4-one;hydrochloride

> <PUBCHEM_IUPAC_INCHI>
InChI=1S/C21H26FNO2.ClH/c22-18-8-6-17(7-9-18)19-15-25-21(20(19)24)10-12-23(13-11-21)14-16-4-2-1-3-5-16;/h6-9,15-16H,1-5,10-14H2;1H

> <PUBCHEM_IUPAC_INCHIKEY>
OMEMQKHDHUJBTI-UHFFFAOYSA-N

> <PUBCHEM_EXACT_MASS>
379.1714350

> <PUBCHEM_MOLECULAR_FORMULA>
C21H27ClFNO2

> <PUBCHEM_MOLECULAR_WEIGHT>
379.9

> <PUBCHEM_OPENEYE_CAN_SMILES>
C1CCC(CC1)CN2CCC3(CC2)C(=O)C(=CO3)C4=CC=C(C=C4)F.Cl

> <PUBCHEM_OPENEYE_ISO_SMILES>
C1CCC(CC1)CN2CCC3(CC2)C(=O)C(=CO3)C4=CC=C(C=C4)F.Cl

> <PUBCHEM_CACTVS_TPSA>
29.5

> <PUBCHEM_MONOISOTOPIC_WEIGHT>
379.1714350

> <PUBCHEM_TOTAL_CHARGE>
0

> <PUBCHEM_HEAVY_ATOM_COUNT>
26

> <PUBCHEM_ATOM_DEF_STEREO_COUNT>
0

> <PUBCHEM_ATOM_UDEF_STEREO_COUNT>
0

> <PUBCHEM_BOND_DEF_STEREO_COUNT>
0

> <PUBCHEM_BOND_UDEF_STEREO_COUNT>
0

> <PUBCHEM_ISOTOPIC_ATOM_COUNT>
0

> <PUBCHEM_COMPONENT_COUNT>
2

> <PUBCHEM_CACTVS_TAUTO_COUNT>
-1

> <PUBCHEM_COORDINATE_TYPE>
1
5
255

> <PUBCHEM_BONDANNOTATIONS>
21  22  8
21  23  8
22  24  8
23  25  8
24  26  8
25  26  8

$$$$
