44335829
  -OEChem-09292322162D

 62 65  0     1  0  0  0  0  0999 V2000
    4.3211    0.7699    0.0000 O   0  0  0  0  0  0  0  0  0  0  0  0
    6.2781    0.3575    0.0000 N   0  0  0  0  0  0  0  0  0  0  0  0
    6.8994   -1.5436    0.0000 N   0  0  0  0  0  0  0  0  0  0  0  0
    4.6783    2.4647    0.0000 N   0  0  0  0  0  0  0  0  0  0  0  0
    5.2619    3.2695    0.0000 C   0  0  3  0  0  0  0  0  0  0  0  0
    5.6103   -0.3868    0.0000 C   0  0  0  0  0  0  0  0  0  0  0  0
    7.2566    0.1513    0.0000 C   0  0  0  0  0  0  0  0  0  0  0  0
    5.9209   -1.3373    0.0000 C   0  0  0  0  0  0  0  0  0  0  0  0
    7.5673   -0.7993    0.0000 C   0  0  0  0  0  0  0  0  0  0  0  0
    5.9674    1.3080    0.0000 C   0  0  0  0  0  0  0  0  0  0  0  0
    4.6783    4.0742    0.0000 C   0  0  0  0  0  0  0  0  0  0  0  0
    3.7320    2.7695    0.0000 C   0  0  0  0  0  0  0  0  0  0  0  0
    3.7320    3.7695    0.0000 C   0  0  0  0  0  0  0  0  0  0  0  0
    4.9889    1.5142    0.0000 C   0  0  0  0  0  0  0  0  0  0  0  0
    7.2101   -2.4941    0.0000 C   0  0  0  0  0  0  0  0  0  0  0  0
    6.2619    3.2695    0.0000 C   0  0  0  0  0  0  0  0  0  0  0  0
    8.1886   -2.7003    0.0000 C   0  0  0  0  0  0  0  0  0  0  0  0
    2.8660    2.2695    0.0000 C   0  0  0  0  0  0  0  0  0  0  0  0
    2.8660    4.2695    0.0000 C   0  0  0  0  0  0  0  0  0  0  0  0
    2.0000    2.7695    0.0000 C   0  0  0  0  0  0  0  0  0  0  0  0
    2.0000    3.7695    0.0000 C   0  0  0  0  0  0  0  0  0  0  0  0
    8.8564   -1.9560    0.0000 C   0  0  0  0  0  0  0  0  0  0  0  0
    8.4993   -3.6508    0.0000 C   0  0  0  0  0  0  0  0  0  0  0  0
   10.1456   -3.1127    0.0000 C   0  0  0  0  0  0  0  0  0  0  0  0
    9.8349   -2.1622    0.0000 C   0  0  0  0  0  0  0  0  0  0  0  0
    9.4778   -3.8570    0.0000 C   0  0  0  0  0  0  0  0  0  0  0  0
   11.1241   -3.3190    0.0000 C   0  0  0  0  0  0  0  0  0  0  0  0
   11.4348   -4.2695    0.0000 C   0  0  0  0  0  0  0  0  0  0  0  0
   11.7920   -2.5746    0.0000 C   0  0  0  0  0  0  0  0  0  0  0  0
    5.5436    2.7172    0.0000 H   0  0  0  0  0  0  0  0  0  0  0  0
    5.2277    0.1011    0.0000 H   0  0  0  0  0  0  0  0  0  0  0  0
    5.0633   -0.6788    0.0000 H   0  0  0  0  0  0  0  0  0  0  0  0
    7.8704    0.2386    0.0000 H   0  0  0  0  0  0  0  0  0  0  0  0
    7.2772    0.7709    0.0000 H   0  0  0  0  0  0  0  0  0  0  0  0
    5.3071   -1.4247    0.0000 H   0  0  0  0  0  0  0  0  0  0  0  0
    5.9004   -1.9570    0.0000 H   0  0  0  0  0  0  0  0  0  0  0  0
    7.9498   -1.2872    0.0000 H   0  0  0  0  0  0  0  0  0  0  0  0
    8.1142   -0.5072    0.0000 H   0  0  0  0  0  0  0  0  0  0  0  0
    6.5812    1.3954    0.0000 H   0  0  0  0  0  0  0  0  0  0  0  0
    5.9880    1.9277    0.0000 H   0  0  0  0  0  0  0  0  0  0  0  0
    5.2156    4.3834    0.0000 H   0  0  0  0  0  0  0  0  0  0  0  0
    4.4272    4.6411    0.0000 H   0  0  0  0  0  0  0  0  0  0  0  0
    6.5963   -2.5814    0.0000 H   0  0  0  0  0  0  0  0  0  0  0  0
    7.1895   -3.1137    0.0000 H   0  0  0  0  0  0  0  0  0  0  0  0
    6.2619    2.6495    0.0000 H   0  0  0  0  0  0  0  0  0  0  0  0
    6.8819    3.2695    0.0000 H   0  0  0  0  0  0  0  0  0  0  0  0
    6.2619    3.8895    0.0000 H   0  0  0  0  0  0  0  0  0  0  0  0
    2.8660    1.6495    0.0000 H   0  0  0  0  0  0  0  0  0  0  0  0
    2.8660    4.8895    0.0000 H   0  0  0  0  0  0  0  0  0  0  0  0
    1.4631    2.4595    0.0000 H   0  0  0  0  0  0  0  0  0  0  0  0
    1.4631    4.0795    0.0000 H   0  0  0  0  0  0  0  0  0  0  0  0
    8.6638   -1.3667    0.0000 H   0  0  0  0  0  0  0  0  0  0  0  0
    8.0852   -4.1123    0.0000 H   0  0  0  0  0  0  0  0  0  0  0  0
   11.7308   -3.4468    0.0000 H   0  0  0  0  0  0  0  0  0  0  0  0
   10.2490   -1.7008    0.0000 H   0  0  0  0  0  0  0  0  0  0  0  0
    9.6704   -4.4464    0.0000 H   0  0  0  0  0  0  0  0  0  0  0  0
   10.8455   -4.4621    0.0000 H   0  0  0  0  0  0  0  0  0  0  0  0
   11.6274   -4.8588    0.0000 H   0  0  0  0  0  0  0  0  0  0  0  0
   12.0241   -4.0769    0.0000 H   0  0  0  0  0  0  0  0  0  0  0  0
   12.2534   -2.9887    0.0000 H   0  0  0  0  0  0  0  0  0  0  0  0
   12.2060   -2.1132    0.0000 H   0  0  0  0  0  0  0  0  0  0  0  0
   11.3305   -2.1606    0.0000 H   0  0  0  0  0  0  0  0  0  0  0  0
  1 14  2  0  0  0  0
  2  6  1  0  0  0  0
  2  7  1  0  0  0  0
  2 10  1  0  0  0  0
  3  8  1  0  0  0  0
  3  9  1  0  0  0  0
  3 15  1  0  0  0  0
  4  5  1  0  0  0  0
  4 12  1  0  0  0  0
  4 14  1  0  0  0  0
  5 11  1  0  0  0  0
  5 16  1  0  0  0  0
  5 30  1  0  0  0  0
  6  8  1  0  0  0  0
  6 31  1  0  0  0  0
  6 32  1  0  0  0  0
  7  9  1  0  0  0  0
  7 33  1  0  0  0  0
  7 34  1  0  0  0  0
  8 35  1  0  0  0  0
  8 36  1  0  0  0  0
  9 37  1  0  0  0  0
  9 38  1  0  0  0  0
 10 14  1  0  0  0  0
 10 39  1  0  0  0  0
 10 40  1  0  0  0  0
 11 13  1  0  0  0  0
 11 41  1  0  0  0  0
 11 42  1  0  0  0  0
 12 13  1  0  0  0  0
 12 18  2  0  0  0  0
 13 19  2  0  0  0  0
 15 17  1  0  0  0  0
 15 43  1  0  0  0  0
 15 44  1  0  0  0  0
 16 45  1  0  0  0  0
 16 46  1  0  0  0  0
 16 47  1  0  0  0  0
 17 22  2  0  0  0  0
 17 23  1  0  0  0  0
 18 20  1  0  0  0  0
 18 48  1  0  0  0  0
 19 21  1  0  0  0  0
 19 49  1  0  0  0  0
 20 21  2  0  0  0  0
 20 50  1  0  0  0  0
 21 51  1  0  0  0  0
 22 25  1  0  0  0  0
 22 52  1  0  0  0  0
 23 26  2  0  0  0  0
 23 53  1  0  0  0  0
 24 25  2  0  0  0  0
 24 26  1  0  0  0  0
 24 27  1  0  0  0  0
 25 55  1  0  0  0  0
 26 56  1  0  0  0  0
 27 28  1  0  0  0  0
 27 29  1  0  0  0  0
 27 54  1  0  0  0  0
 28 57  1  0  0  0  0
 28 58  1  0  0  0  0
 28 59  1  0  0  0  0
 29 60  1  0  0  0  0
 29 61  1  0  0  0  0
 29 62  1  0  0  0  0
M  END
> <PUBCHEM_COMPOUND_CID>
44335829

> <PUBCHEM_COMPOUND_CANONICALIZED>
1

> <PUBCHEM_CACTVS_COMPLEXITY>
534

> <PUBCHEM_CACTVS_HBOND_ACCEPTOR>
3

> <PUBCHEM_CACTVS_HBOND_DONOR>
0

> <PUBCHEM_CACTVS_ROTATABLE_BOND>
5

> <PUBCHEM_CACTVS_SUBSKEYS>
AAADcfB7IAAAAAAAAAAAAAAAAAAAAWAAAAA8YIAAAAAAAFgBQAAAHgAAAAAADSjBmAQywIMAAACIAiVSUACCAAAhAgAIiACIZIgIYCLAkbGUIAhghgDIyAcQgMAOwAAAAAACAACAAAAAAAQAAAAAAAAAAA==

> <PUBCHEM_IUPAC_OPENEYE_NAME>
2-[4-[(4-isopropylphenyl)methyl]piperazin-1-yl]-1-(2-methylindolin-1-yl)ethanone

> <PUBCHEM_IUPAC_CAS_NAME>
1-(2-methyl-2,3-dihydroindol-1-yl)-2-[4-[(4-propan-2-ylphenyl)methyl]-1-piperazinyl]ethanone

> <PUBCHEM_IUPAC_NAME_MARKUP>
1-(2-methyl-2,3-dihydroindol-1-yl)-2-[4-[(4-propan-2-ylphenyl)methyl]piperazin-1-yl]ethanone

> <PUBCHEM_IUPAC_NAME>
1-(2-methyl-2,3-dihydroindol-1-yl)-2-[4-[(4-propan-2-ylphenyl)methyl]piperazin-1-yl]ethanone

> <PUBCHEM_IUPAC_SYSTEMATIC_NAME>
1-(2-methyl-2,3-dihydroindol-1-yl)-2-[4-[(4-propan-2-ylphenyl)methyl]piperazin-1-yl]ethanone

> <PUBCHEM_IUPAC_TRADITIONAL_NAME>
2-[4-(4-isopropylbenzyl)piperazino]-1-(2-methylindolin-1-yl)ethanone

> <PUBCHEM_IUPAC_INCHI>
InChI=1S/C25H33N3O/c1-19(2)22-10-8-21(9-11-22)17-26-12-14-27(15-13-26)18-25(29)28-20(3)16-23-6-4-5-7-24(23)28/h4-11,19-20H,12-18H2,1-3H3

> <PUBCHEM_IUPAC_INCHIKEY>
RCQMBKDEEJPXIY-UHFFFAOYSA-N

> <PUBCHEM_XLOGP3_AA>
4.2

> <PUBCHEM_EXACT_MASS>
391.262362685

> <PUBCHEM_MOLECULAR_FORMULA>
C25H33N3O

> <PUBCHEM_MOLECULAR_WEIGHT>
391.5

> <PUBCHEM_OPENEYE_CAN_SMILES>
CC1CC2=CC=CC=C2N1C(=O)CN3CCN(CC3)CC4=CC=C(C=C4)C(C)C

> <PUBCHEM_OPENEYE_ISO_SMILES>
CC1CC2=CC=CC=C2N1C(=O)CN3CCN(CC3)CC4=CC=C(C=C4)C(C)C

> <PUBCHEM_CACTVS_TPSA>
26.8

> <PUBCHEM_MONOISOTOPIC_WEIGHT>
391.262362685

> <PUBCHEM_TOTAL_CHARGE>
0

> <PUBCHEM_HEAVY_ATOM_COUNT>
29

> <PUBCHEM_ATOM_DEF_STEREO_COUNT>
0

> <PUBCHEM_ATOM_UDEF_STEREO_COUNT>
1

> <PUBCHEM_BOND_DEF_STEREO_COUNT>
0

> <PUBCHEM_BOND_UDEF_STEREO_COUNT>
0

> <PUBCHEM_ISOTOPIC_ATOM_COUNT>
0

> <PUBCHEM_COMPONENT_COUNT>
1

> <PUBCHEM_CACTVS_TAUTO_COUNT>
-1

> <PUBCHEM_COORDINATE_TYPE>
1
5
255

> <PUBCHEM_BONDANNOTATIONS>
12  13  8
12  18  8
13  19  8
17  22  8
17  23  8
18  20  8
19  21  8
20  21  8
22  25  8
23  26  8
24  25  8
24  26  8
5  16  3

$$$$
