72699718
  -OEChem-09292322362D

 50 54  0     1  0  0  0  0  0999 V2000
    5.3871    1.5013    0.0000 S   0  0  0  0  0  0  0  0  0  0  0  0
    3.8372   -4.8625    0.0000 O   0  0  0  0  0  0  0  0  0  0  0  0
    5.6405   -3.8028    0.0000 O   0  0  0  0  0  0  0  0  0  0  0  0
    2.9180   -0.1658    0.0000 N   0  0  3  0  0  0  0  0  0  0  0  0
    4.9820    4.1411    0.0000 C   0  0  0  0  0  0  0  0  0  0  0  0
    3.7841   -0.6658    0.0000 C   0  0  1  0  0  0  0  0  0  0  0  0
    5.2408    5.1070    0.0000 C   0  0  0  0  0  0  0  0  0  0  0  0
    4.0161    4.3999    0.0000 C   0  0  0  0  0  0  0  0  0  0  0  0
    4.2749    5.3659    0.0000 C   0  0  0  0  0  0  0  0  0  0  0  0
    5.4820    3.2751    0.0000 C   0  0  0  0  0  0  0  0  0  0  0  0
    4.6501   -0.1658    0.0000 C   0  0  0  0  0  0  0  0  0  0  0  0
    2.9180    0.8342    0.0000 C   0  0  0  0  0  0  0  0  0  0  0  0
    3.7841    1.3342    0.0000 C   0  0  0  0  0  0  0  0  0  0  0  0
    4.6501    0.8342    0.0000 C   0  0  0  0  0  0  0  0  0  0  0  0
    2.0080   -0.6727    0.0000 C   0  0  0  0  0  0  0  0  0  0  0  0
    3.8001   -1.7073    0.0000 C   0  0  0  0  0  0  0  0  0  0  0  0
    4.9820    2.4091    0.0000 C   0  0  0  0  0  0  0  0  0  0  0  0
    2.0000   -1.7142    0.0000 C   0  0  0  0  0  0  0  0  0  0  0  0
    2.9021   -2.2351    0.0000 C   0  0  0  0  0  0  0  0  0  0  0  0
    3.9933    2.3060    0.0000 C   0  0  0  0  0  0  0  0  0  0  0  0
    4.7520   -2.2279    0.0000 C   0  0  0  0  0  0  0  0  0  0  0  0
    2.8937   -3.3200    0.0000 C   0  0  0  0  0  0  0  0  0  0  0  0
    4.7688   -3.3128    0.0000 C   0  0  0  0  0  0  0  0  0  0  0  0
    3.8334   -3.8625    0.0000 C   0  0  0  0  0  0  0  0  0  0  0  0
    2.9731   -5.3659    0.0000 C   0  0  0  0  0  0  0  0  0  0  0  0
    4.6046    3.6492    0.0000 H   0  0  0  0  0  0  0  0  0  0  0  0
    4.5234   -1.0851    0.0000 H   0  0  0  0  0  0  0  0  0  0  0  0
    5.8397    4.9466    0.0000 H   0  0  0  0  0  0  0  0  0  0  0  0
    5.4013    5.7059    0.0000 H   0  0  0  0  0  0  0  0  0  0  0  0
    3.4172    4.5604    0.0000 H   0  0  0  0  0  0  0  0  0  0  0  0
    3.8556    3.8011    0.0000 H   0  0  0  0  0  0  0  0  0  0  0  0
    4.4353    5.9647    0.0000 H   0  0  0  0  0  0  0  0  0  0  0  0
    3.6760    5.5263    0.0000 H   0  0  0  0  0  0  0  0  0  0  0  0
    5.9569    2.8766    0.0000 H   0  0  0  0  0  0  0  0  0  0  0  0
    5.9569    3.6736    0.0000 H   0  0  0  0  0  0  0  0  0  0  0  0
    4.8621   -0.7484    0.0000 H   0  0  0  0  0  0  0  0  0  0  0  0
    5.2607   -0.0581    0.0000 H   0  0  0  0  0  0  0  0  0  0  0  0
    2.7060    1.4168    0.0000 H   0  0  0  0  0  0  0  0  0  0  0  0
    2.3074    0.7265    0.0000 H   0  0  0  0  0  0  0  0  0  0  0  0
    1.8035   -0.0874    0.0000 H   0  0  0  0  0  0  0  0  0  0  0  0
    1.3964   -0.7740    0.0000 H   0  0  0  0  0  0  0  0  0  0  0  0
    1.3900   -1.6035    0.0000 H   0  0  0  0  0  0  0  0  0  0  0  0
    1.7864   -2.2963    0.0000 H   0  0  0  0  0  0  0  0  0  0  0  0
    3.5792    2.7675    0.0000 H   0  0  0  0  0  0  0  0  0  0  0  0
    5.2829   -1.9076    0.0000 H   0  0  0  0  0  0  0  0  0  0  0  0
    2.3556   -3.6280    0.0000 H   0  0  0  0  0  0  0  0  0  0  0  0
    5.6477   -4.4227    0.0000 H   0  0  0  0  0  0  0  0  0  0  0  0
    2.6610   -4.8301    0.0000 H   0  0  0  0  0  0  0  0  0  0  0  0
    2.4374   -5.6779    0.0000 H   0  0  0  0  0  0  0  0  0  0  0  0
    3.2852   -5.9016    0.0000 H   0  0  0  0  0  0  0  0  0  0  0  0
  1 14  1  0  0  0  0
  1 17  1  0  0  0  0
  2 24  1  0  0  0  0
  2 25  1  0  0  0  0
  3 23  1  0  0  0  0
  3 47  1  0  0  0  0
  4  6  1  0  0  0  0
  4 12  1  0  0  0  0
  4 15  1  0  0  0  0
  5  7  1  0  0  0  0
  5  8  1  0  0  0  0
  5 10  1  0  0  0  0
  5 26  1  0  0  0  0
  6 11  1  0  0  0  0
  6 16  1  0  0  0  0
  6 27  1  6  0  0  0
  7  9  1  0  0  0  0
  7 28  1  0  0  0  0
  7 29  1  0  0  0  0
  8  9  1  0  0  0  0
  8 30  1  0  0  0  0
  8 31  1  0  0  0  0
  9 32  1  0  0  0  0
  9 33  1  0  0  0  0
 10 17  1  0  0  0  0
 10 34  1  0  0  0  0
 10 35  1  0  0  0  0
 11 14  1  0  0  0  0
 11 36  1  0  0  0  0
 11 37  1  0  0  0  0
 12 13  1  0  0  0  0
 12 38  1  0  0  0  0
 12 39  1  0  0  0  0
 13 14  2  0  0  0  0
 13 20  1  0  0  0  0
 15 18  1  0  0  0  0
 15 40  1  0  0  0  0
 15 41  1  0  0  0  0
 16 19  1  0  0  0  0
 16 21  2  0  0  0  0
 17 20  2  0  0  0  0
 18 19  1  0  0  0  0
 18 42  1  0  0  0  0
 18 43  1  0  0  0  0
 19 22  2  0  0  0  0
 20 44  1  0  0  0  0
 21 23  1  0  0  0  0
 21 45  1  0  0  0  0
 22 24  1  0  0  0  0
 22 46  1  0  0  0  0
 23 24  2  0  0  0  0
 25 48  1  0  0  0  0
 25 49  1  0  0  0  0
 25 50  1  0  0  0  0
M  END
> <PUBCHEM_COMPOUND_CID>
72699718

> <PUBCHEM_COMPOUND_CANONICALIZED>
1

> <PUBCHEM_CACTVS_COMPLEXITY>
485

> <PUBCHEM_CACTVS_HBOND_ACCEPTOR>
4

> <PUBCHEM_CACTVS_HBOND_DONOR>
1

> <PUBCHEM_CACTVS_ROTATABLE_BOND>
3

> <PUBCHEM_CACTVS_SUBSKEYS>
AAADceB6MABAAAAAAAAAAAAAAABgASAAAAA8WIAAAAAAAFixwAAAHgQACAAADSzB2AYyB4MABgiEAiBCAACDCIAgKBBAiBgOjIgNJiKmsRuEcCtkwBGruAew0PMOoAABAAAQQABAAAIAACCAAAAAAAAAAA==

> <PUBCHEM_IUPAC_OPENEYE_NAME>
(1S)-14-(cyclobutylmethyl)-5-methoxy-15-thia-10-azatetracyclo[8.7.0.02,7.012,16]heptadeca-2,4,6,12(16),13-pentaen-4-ol

> <PUBCHEM_IUPAC_CAS_NAME>
(1S)-14-(cyclobutylmethyl)-5-methoxy-15-thia-10-azatetracyclo[8.7.0.02,7.012,16]heptadeca-2,4,6,12(16),13-pentaen-4-ol

> <PUBCHEM_IUPAC_NAME_MARKUP>
(1<I>S</I>)-14-(cyclobutylmethyl)-5-methoxy-15-thia-10-azatetracyclo[8.7.0.0<SUP>2,7</SUP>.0<SUP>12,16</SUP>]heptadeca-2,4,6,12(16),13-pentaen-4-ol

> <PUBCHEM_IUPAC_NAME>
(1S)-14-(cyclobutylmethyl)-5-methoxy-15-thia-10-azatetracyclo[8.7.0.02,7.012,16]heptadeca-2,4,6,12(16),13-pentaen-4-ol

> <PUBCHEM_IUPAC_SYSTEMATIC_NAME>
(1S)-14-(cyclobutylmethyl)-5-methoxy-15-thia-10-azatetracyclo[8.7.0.02,7.012,16]heptadeca-2,4,6,12(16),13-pentaen-4-ol

> <PUBCHEM_IUPAC_TRADITIONAL_NAME>
(1S)-14-(cyclobutylmethyl)-5-methoxy-15-thia-10-azatetracyclo[8.7.0.02,7.012,16]heptadeca-2,4,6,12(16),13-pentaen-4-ol

> <PUBCHEM_IUPAC_INCHI>
InChI=1S/C21H25NO2S/c1-24-20-9-14-5-6-22-12-15-8-16(7-13-3-2-4-13)25-21(15)11-18(22)17(14)10-19(20)23/h8-10,13,18,23H,2-7,11-12H2,1H3/t18-/m0/s1

> <PUBCHEM_IUPAC_INCHIKEY>
ALDCLQHVTZPMQV-SFHVURJKSA-N

> <PUBCHEM_XLOGP3_AA>
4.6

> <PUBCHEM_EXACT_MASS>
355.16060021

> <PUBCHEM_MOLECULAR_FORMULA>
C21H25NO2S

> <PUBCHEM_MOLECULAR_WEIGHT>
355.5

> <PUBCHEM_OPENEYE_CAN_SMILES>
COC1=C(C=C2C3CC4=C(CN3CCC2=C1)C=C(S4)CC5CCC5)O

> <PUBCHEM_OPENEYE_ISO_SMILES>
COC1=C(C=C2[C@@H]3CC4=C(CN3CCC2=C1)C=C(S4)CC5CCC5)O

> <PUBCHEM_CACTVS_TPSA>
60.9

> <PUBCHEM_MONOISOTOPIC_WEIGHT>
355.16060021

> <PUBCHEM_TOTAL_CHARGE>
0

> <PUBCHEM_HEAVY_ATOM_COUNT>
25

> <PUBCHEM_ATOM_DEF_STEREO_COUNT>
1

> <PUBCHEM_ATOM_UDEF_STEREO_COUNT>
0

> <PUBCHEM_BOND_DEF_STEREO_COUNT>
0

> <PUBCHEM_BOND_UDEF_STEREO_COUNT>
0

> <PUBCHEM_ISOTOPIC_ATOM_COUNT>
0

> <PUBCHEM_COMPONENT_COUNT>
1

> <PUBCHEM_CACTVS_TAUTO_COUNT>
-1

> <PUBCHEM_COORDINATE_TYPE>
1
5
255

> <PUBCHEM_BONDANNOTATIONS>
1  14  8
1  17  8
13  14  8
13  20  8
16  19  8
16  21  8
17  20  8
19  22  8
21  23  8
22  24  8
23  24  8
6  27  6

$$$$
