56833464
  -OEChem-09292322322D

174181  0     1  0  0  0  0  0999 V2000
   39.0029   -9.4808    0.0000 O   0  0  0  0  0  0  0  0  0  0  0  0
   11.2619    6.7599    0.0000 O   0  0  0  0  0  0  0  0  0  0  0  0
   12.7619    2.4298    0.0000 O   0  0  0  0  0  0  0  0  0  0  0  0
   10.7619    2.4298    0.0000 O   0  0  0  0  0  0  0  0  0  0  0  0
   31.0755   -5.8536    0.0000 O   0  0  0  0  0  0  0  0  0  0  0  0
   26.8539   -7.6363    0.0000 O   0  0  0  0  0  0  0  0  0  0  0  0
   28.1921   -9.1226    0.0000 O   0  0  0  0  0  0  0  0  0  0  0  0
    6.2619    8.4919    0.0000 N   0  0  3  0  0  0  0  0  0  0  0  0
   35.7083   -8.4104    0.0000 N   0  0  0  0  0  0  0  0  0  0  0  0
   37.6646   -7.9946    0.0000 N   0  0  0  0  0  0  0  0  0  0  0  0
    9.7619    5.8939    0.0000 N   0  0  0  0  0  0  0  0  0  0  0  0
   31.4356   -7.5478    0.0000 N   0  0  0  0  0  0  0  0  0  0  0  0
   16.9643   -0.3850    0.0000 N   0  0  0  0  0  0  0  0  0  0  0  0
   21.9502   -6.3967    0.0000 N   0  0  0  0  0  0  0  0  0  0  0  0
   16.0983   -0.8850    0.0000 N   0  0  0  0  0  0  0  0  0  0  0  0
   22.1581   -7.3749    0.0000 N   0  0  0  0  0  0  0  0  0  0  0  0
   15.3551   -0.2158    0.0000 N   0  0  0  0  0  0  0  0  0  0  0  0
   23.1526   -7.4794    0.0000 N   0  0  0  0  0  0  0  0  0  0  0  0
    5.2619    8.4919    0.0000 C   0  0  0  0  0  0  0  0  0  0  0  0
    4.6783    7.6872    0.0000 C   0  0  0  0  0  0  0  0  0  0  0  0
    4.6783    9.2967    0.0000 C   0  0  0  0  0  0  0  0  0  0  0  0
    3.7320    7.9919    0.0000 C   0  0  0  0  0  0  0  0  0  0  0  0
    3.7320    8.9919    0.0000 C   0  0  0  0  0  0  0  0  0  0  0  0
    6.7619    7.6259    0.0000 C   0  0  0  0  0  0  0  0  0  0  0  0
    6.7619    9.3580    0.0000 C   0  0  0  0  0  0  0  0  0  0  0  0
    7.7619    7.6259    0.0000 C   0  0  0  0  0  0  0  0  0  0  0  0
    2.8660    7.4919    0.0000 C   0  0  0  0  0  0  0  0  0  0  0  0
    2.8660    9.4919    0.0000 C   0  0  0  0  0  0  0  0  0  0  0  0
    7.7619    9.3580    0.0000 C   0  0  0  0  0  0  0  0  0  0  0  0
    8.2619    6.7599    0.0000 C   0  0  0  0  0  0  0  0  0  0  0  0
    2.0000    7.9919    0.0000 C   0  0  0  0  0  0  0  0  0  0  0  0
    2.0000    8.9919    0.0000 C   0  0  0  0  0  0  0  0  0  0  0  0
    8.2619   10.2240    0.0000 C   0  0  0  0  0  0  0  0  0  0  0  0
    9.2619    6.7599    0.0000 C   0  0  0  0  0  0  0  0  0  0  0  0
   36.3774   -9.1535    0.0000 C   0  0  0  0  0  0  0  0  0  0  0  0
   36.0173   -7.4593    0.0000 C   0  0  0  0  0  0  0  0  0  0  0  0
   37.3556   -8.9456    0.0000 C   0  0  0  0  0  0  0  0  0  0  0  0
   36.9955   -7.2514    0.0000 C   0  0  0  0  0  0  0  0  0  0  0  0
   34.7302   -8.6183    0.0000 C   0  0  0  0  0  0  0  0  0  0  0  0
   34.0610   -7.8752    0.0000 C   0  0  0  0  0  0  0  0  0  0  0  0
   38.6427   -7.7866    0.0000 C   0  0  0  0  0  0  0  0  0  0  0  0
   33.0829   -8.0831    0.0000 C   0  0  0  0  0  0  0  0  0  0  0  0
   10.7619    5.8939    0.0000 C   0  0  0  0  0  0  0  0  0  0  0  0
   32.4137   -7.3399    0.0000 C   0  0  0  0  0  0  0  0  0  0  0  0
   39.3119   -8.5298    0.0000 C   0  0  0  0  0  0  0  0  0  0  0  0
   38.9518   -6.8356    0.0000 C   0  0  0  0  0  0  0  0  0  0  0  0
   11.2619    5.0278    0.0000 C   0  0  0  0  0  0  0  0  0  0  0  0
   40.2900   -8.3219    0.0000 C   0  0  0  0  0  0  0  0  0  0  0  0
   39.9299   -6.6277    0.0000 C   0  0  0  0  0  0  0  0  0  0  0  0
   40.5990   -7.3708    0.0000 C   0  0  0  0  0  0  0  0  0  0  0  0
   10.7619    4.1618    0.0000 C   0  0  0  0  0  0  0  0  0  0  0  0
   12.2619    5.0278    0.0000 C   0  0  0  0  0  0  0  0  0  0  0  0
   30.7665   -6.8047    0.0000 C   0  0  0  0  0  0  0  0  0  0  0  0
   11.2619    3.2958    0.0000 C   0  0  0  0  0  0  0  0  0  0  0  0
   12.7619    4.1618    0.0000 C   0  0  0  0  0  0  0  0  0  0  0  0
   19.0005   -3.1875    0.0000 C   0  0  0  0  0  0  0  0  0  0  0  0
   19.9140   -3.5942    0.0000 C   0  0  0  0  0  0  0  0  0  0  0  0
   39.6720  -10.2240    0.0000 C   0  0  0  0  0  0  0  0  0  0  0  0
   18.8959   -2.1930    0.0000 C   0  0  0  0  0  0  0  0  0  0  0  0
   20.0185   -4.5887    0.0000 C   0  0  0  0  0  0  0  0  0  0  0  0
   12.2619    3.2958    0.0000 C   0  0  0  0  0  0  0  0  0  0  0  0
   17.9824   -1.7862    0.0000 C   0  0  0  0  0  0  0  0  0  0  0  0
   20.9321   -4.9955    0.0000 C   0  0  0  0  0  0  0  0  0  0  0  0
   29.7883   -7.0126    0.0000 C   0  0  0  0  0  0  0  0  0  0  0  0
   17.8779   -0.7917    0.0000 C   0  0  0  0  0  0  0  0  0  0  0  0
   21.0366   -5.9900    0.0000 C   0  0  0  0  0  0  0  0  0  0  0  0
   13.7619    2.4298    0.0000 C   0  0  0  0  0  0  0  0  0  0  0  0
   29.4793   -7.9636    0.0000 C   0  0  0  0  0  0  0  0  0  0  0  0
   29.1192   -6.2694    0.0000 C   0  0  0  0  0  0  0  0  0  0  0  0
   14.2619    1.5637    0.0000 C   0  0  0  0  0  0  0  0  0  0  0  0
   15.2619    1.5637    0.0000 C   0  0  0  0  0  0  0  0  0  0  0  0
   15.7619    0.6977    0.0000 C   0  0  0  0  0  0  0  0  0  0  0  0
   16.7564    0.5932    0.0000 C   0  0  0  0  0  0  0  0  0  0  0  0
   28.5012   -8.1716    0.0000 C   0  0  0  0  0  0  0  0  0  0  0  0
   22.8162   -5.8967    0.0000 C   0  0  0  0  0  0  0  0  0  0  0  0
   28.1410   -6.4774    0.0000 C   0  0  0  0  0  0  0  0  0  0  0  0
   27.8320   -7.4284    0.0000 C   0  0  0  0  0  0  0  0  0  0  0  0
   23.5593   -6.5659    0.0000 C   0  0  0  0  0  0  0  0  0  0  0  0
   24.5375   -6.3580    0.0000 C   0  0  0  0  0  0  0  0  0  0  0  0
   25.2066   -7.1011    0.0000 C   0  0  0  0  0  0  0  0  0  0  0  0
    9.7619    2.4298    0.0000 C   0  0  0  0  0  0  0  0  0  0  0  0
   26.1847   -6.8932    0.0000 C   0  0  0  0  0  0  0  0  0  0  0  0
   28.8613   -9.8658    0.0000 C   0  0  0  0  0  0  0  0  0  0  0  0
    5.5436    7.9396    0.0000 H   0  0  0  0  0  0  0  0  0  0  0  0
    4.4272    7.1203    0.0000 H   0  0  0  0  0  0  0  0  0  0  0  0
    5.2156    7.3780    0.0000 H   0  0  0  0  0  0  0  0  0  0  0  0
    5.2156    9.6059    0.0000 H   0  0  0  0  0  0  0  0  0  0  0  0
    4.4272    9.8636    0.0000 H   0  0  0  0  0  0  0  0  0  0  0  0
    6.1793    7.4139    0.0000 H   0  0  0  0  0  0  0  0  0  0  0  0
    6.8695    7.0153    0.0000 H   0  0  0  0  0  0  0  0  0  0  0  0
    6.8695    9.9686    0.0000 H   0  0  0  0  0  0  0  0  0  0  0  0
    6.1793    9.5700    0.0000 H   0  0  0  0  0  0  0  0  0  0  0  0
    8.3445    7.8380    0.0000 H   0  0  0  0  0  0  0  0  0  0  0  0
    7.6542    8.2365    0.0000 H   0  0  0  0  0  0  0  0  0  0  0  0
    2.8660    6.8719    0.0000 H   0  0  0  0  0  0  0  0  0  0  0  0
    2.8660   10.1119    0.0000 H   0  0  0  0  0  0  0  0  0  0  0  0
    7.6542    8.7474    0.0000 H   0  0  0  0  0  0  0  0  0  0  0  0
    8.3445    9.1459    0.0000 H   0  0  0  0  0  0  0  0  0  0  0  0
    7.6793    6.5478    0.0000 H   0  0  0  0  0  0  0  0  0  0  0  0
    8.3695    6.1493    0.0000 H   0  0  0  0  0  0  0  0  0  0  0  0
    1.4631    7.6819    0.0000 H   0  0  0  0  0  0  0  0  0  0  0  0
    1.4631    9.3019    0.0000 H   0  0  0  0  0  0  0  0  0  0  0  0
    8.7988    9.9140    0.0000 H   0  0  0  0  0  0  0  0  0  0  0  0
    8.5719   10.7609    0.0000 H   0  0  0  0  0  0  0  0  0  0  0  0
    7.7249   10.5340    0.0000 H   0  0  0  0  0  0  0  0  0  0  0  0
    9.8445    6.9719    0.0000 H   0  0  0  0  0  0  0  0  0  0  0  0
    9.1542    7.3705    0.0000 H   0  0  0  0  0  0  0  0  0  0  0  0
   35.8516   -9.4821    0.0000 H   0  0  0  0  0  0  0  0  0  0  0  0
   36.6097   -9.7284    0.0000 H   0  0  0  0  0  0  0  0  0  0  0  0
   35.9957   -6.8397    0.0000 H   0  0  0  0  0  0  0  0  0  0  0  0
   35.4034   -7.3730    0.0000 H   0  0  0  0  0  0  0  0  0  0  0  0
   37.3772   -9.5652    0.0000 H   0  0  0  0  0  0  0  0  0  0  0  0
   37.9696   -9.0319    0.0000 H   0  0  0  0  0  0  0  0  0  0  0  0
   37.5213   -6.9229    0.0000 H   0  0  0  0  0  0  0  0  0  0  0  0
   36.7632   -6.6766    0.0000 H   0  0  0  0  0  0  0  0  0  0  0  0
   34.2044   -8.9468    0.0000 H   0  0  0  0  0  0  0  0  0  0  0  0
   34.9624   -9.1931    0.0000 H   0  0  0  0  0  0  0  0  0  0  0  0
    9.4519    5.3569    0.0000 H   0  0  0  0  0  0  0  0  0  0  0  0
   34.5868   -7.5466    0.0000 H   0  0  0  0  0  0  0  0  0  0  0  0
   33.8288   -7.3003    0.0000 H   0  0  0  0  0  0  0  0  0  0  0  0
   32.5571   -8.4116    0.0000 H   0  0  0  0  0  0  0  0  0  0  0  0
   33.3151   -8.6579    0.0000 H   0  0  0  0  0  0  0  0  0  0  0  0
   32.9395   -7.0114    0.0000 H   0  0  0  0  0  0  0  0  0  0  0  0
   32.1815   -6.7651    0.0000 H   0  0  0  0  0  0  0  0  0  0  0  0
   38.5369   -6.3748    0.0000 H   0  0  0  0  0  0  0  0  0  0  0  0
   40.7049   -8.7826    0.0000 H   0  0  0  0  0  0  0  0  0  0  0  0
   40.1215   -6.0380    0.0000 H   0  0  0  0  0  0  0  0  0  0  0  0
   31.2440   -8.1375    0.0000 H   0  0  0  0  0  0  0  0  0  0  0  0
   41.2055   -7.2419    0.0000 H   0  0  0  0  0  0  0  0  0  0  0  0
   10.1419    4.1618    0.0000 H   0  0  0  0  0  0  0  0  0  0  0  0
   12.5719    5.5648    0.0000 H   0  0  0  0  0  0  0  0  0  0  0  0
   18.3820   -3.1442    0.0000 H   0  0  0  0  0  0  0  0  0  0  0  0
   18.8505   -3.7891    0.0000 H   0  0  0  0  0  0  0  0  0  0  0  0
   20.5325   -3.6375    0.0000 H   0  0  0  0  0  0  0  0  0  0  0  0
   20.0640   -2.9926    0.0000 H   0  0  0  0  0  0  0  0  0  0  0  0
   13.3819    4.1618    0.0000 H   0  0  0  0  0  0  0  0  0  0  0  0
   39.2112  -10.6389    0.0000 H   0  0  0  0  0  0  0  0  0  0  0  0
   40.0869  -10.6847    0.0000 H   0  0  0  0  0  0  0  0  0  0  0  0
   40.1327   -9.8091    0.0000 H   0  0  0  0  0  0  0  0  0  0  0  0
   19.5144   -2.2362    0.0000 H   0  0  0  0  0  0  0  0  0  0  0  0
   19.0459   -1.5914    0.0000 H   0  0  0  0  0  0  0  0  0  0  0  0
   19.4000   -4.5455    0.0000 H   0  0  0  0  0  0  0  0  0  0  0  0
   19.8685   -5.1903    0.0000 H   0  0  0  0  0  0  0  0  0  0  0  0
   17.3639   -1.7430    0.0000 H   0  0  0  0  0  0  0  0  0  0  0  0
   17.8324   -2.3878    0.0000 H   0  0  0  0  0  0  0  0  0  0  0  0
   21.5506   -5.0387    0.0000 H   0  0  0  0  0  0  0  0  0  0  0  0
   21.0821   -4.3939    0.0000 H   0  0  0  0  0  0  0  0  0  0  0  0
   18.4963   -0.8349    0.0000 H   0  0  0  0  0  0  0  0  0  0  0  0
   18.0279   -0.1901    0.0000 H   0  0  0  0  0  0  0  0  0  0  0  0
   20.4181   -5.9468    0.0000 H   0  0  0  0  0  0  0  0  0  0  0  0
   20.8866   -6.5916    0.0000 H   0  0  0  0  0  0  0  0  0  0  0  0
   14.3445    2.6418    0.0000 H   0  0  0  0  0  0  0  0  0  0  0  0
   13.6542    3.0404    0.0000 H   0  0  0  0  0  0  0  0  0  0  0  0
   29.8942   -8.4244    0.0000 H   0  0  0  0  0  0  0  0  0  0  0  0
   29.3108   -5.6798    0.0000 H   0  0  0  0  0  0  0  0  0  0  0  0
   13.6793    1.3517    0.0000 H   0  0  0  0  0  0  0  0  0  0  0  0
   14.3695    0.9532    0.0000 H   0  0  0  0  0  0  0  0  0  0  0  0
   15.8445    1.7758    0.0000 H   0  0  0  0  0  0  0  0  0  0  0  0
   15.1542    2.1743    0.0000 H   0  0  0  0  0  0  0  0  0  0  0  0
   17.1713    1.0539    0.0000 H   0  0  0  0  0  0  0  0  0  0  0  0
   22.8810   -5.2801    0.0000 H   0  0  0  0  0  0  0  0  0  0  0  0
   27.7262   -6.0166    0.0000 H   0  0  0  0  0  0  0  0  0  0  0  0
   25.0633   -6.0294    0.0000 H   0  0  0  0  0  0  0  0  0  0  0  0
   24.3052   -5.7831    0.0000 H   0  0  0  0  0  0  0  0  0  0  0  0
   24.6808   -7.4296    0.0000 H   0  0  0  0  0  0  0  0  0  0  0  0
   25.4389   -7.6760    0.0000 H   0  0  0  0  0  0  0  0  0  0  0  0
    9.7619    3.0498    0.0000 H   0  0  0  0  0  0  0  0  0  0  0  0
    9.1419    2.4298    0.0000 H   0  0  0  0  0  0  0  0  0  0  0  0
    9.7619    1.8098    0.0000 H   0  0  0  0  0  0  0  0  0  0  0  0
   26.7105   -6.5646    0.0000 H   0  0  0  0  0  0  0  0  0  0  0  0
   25.9525   -6.3183    0.0000 H   0  0  0  0  0  0  0  0  0  0  0  0
   28.4005  -10.2806    0.0000 H   0  0  0  0  0  0  0  0  0  0  0  0
   29.2761  -10.3265    0.0000 H   0  0  0  0  0  0  0  0  0  0  0  0
   29.3220   -9.4509    0.0000 H   0  0  0  0  0  0  0  0  0  0  0  0
  1 45  1  0  0  0  0
  1 58  1  0  0  0  0
  2 43  2  0  0  0  0
  3 61  1  0  0  0  0
  3 67  1  0  0  0  0
  4 54  1  0  0  0  0
  4 81  1  0  0  0  0
  5 53  2  0  0  0  0
  6 77  1  0  0  0  0
  6 82  1  0  0  0  0
  7 74  1  0  0  0  0
  7 83  1  0  0  0  0
  8 19  1  0  0  0  0
  8 24  1  0  0  0  0
  8 25  1  0  0  0  0
  9 35  1  0  0  0  0
  9 36  1  0  0  0  0
  9 39  1  0  0  0  0
 10 37  1  0  0  0  0
 10 38  1  0  0  0  0
 10 41  1  0  0  0  0
 11 34  1  0  0  0  0
 11 43  1  0  0  0  0
 11118  1  0  0  0  0
 12 44  1  0  0  0  0
 12 53  1  0  0  0  0
 12128  1  0  0  0  0
 13 15  1  0  0  0  0
 13 65  1  0  0  0  0
 13 73  1  0  0  0  0
 14 16  1  0  0  0  0
 14 66  1  0  0  0  0
 14 75  1  0  0  0  0
 15 17  2  0  0  0  0
 16 18  2  0  0  0  0
 17 72  1  0  0  0  0
 18 78  1  0  0  0  0
 19 20  1  0  0  0  0
 19 21  1  0  0  0  0
 19 84  1  0  0  0  0
 20 22  1  0  0  0  0
 20 85  1  0  0  0  0
 20 86  1  0  0  0  0
 21 23  1  0  0  0  0
 21 87  1  0  0  0  0
 21 88  1  0  0  0  0
 22 23  1  0  0  0  0
 22 27  2  0  0  0  0
 23 28  2  0  0  0  0
 24 26  1  0  0  0  0
 24 89  1  0  0  0  0
 24 90  1  0  0  0  0
 25 29  1  0  0  0  0
 25 91  1  0  0  0  0
 25 92  1  0  0  0  0
 26 30  1  0  0  0  0
 26 93  1  0  0  0  0
 26 94  1  0  0  0  0
 27 31  1  0  0  0  0
 27 95  1  0  0  0  0
 28 32  1  0  0  0  0
 28 96  1  0  0  0  0
 29 33  1  0  0  0  0
 29 97  1  0  0  0  0
 29 98  1  0  0  0  0
 30 34  1  0  0  0  0
 30 99  1  0  0  0  0
 30100  1  0  0  0  0
 31 32  2  0  0  0  0
 31101  1  0  0  0  0
 32102  1  0  0  0  0
 33103  1  0  0  0  0
 33104  1  0  0  0  0
 33105  1  0  0  0  0
 34106  1  0  0  0  0
 34107  1  0  0  0  0
 35 37  1  0  0  0  0
 35108  1  0  0  0  0
 35109  1  0  0  0  0
 36 38  1  0  0  0  0
 36110  1  0  0  0  0
 36111  1  0  0  0  0
 37112  1  0  0  0  0
 37113  1  0  0  0  0
 38114  1  0  0  0  0
 38115  1  0  0  0  0
 39 40  1  0  0  0  0
 39116  1  0  0  0  0
 39117  1  0  0  0  0
 40 42  1  0  0  0  0
 40119  1  0  0  0  0
 40120  1  0  0  0  0
 41 45  1  0  0  0  0
 41 46  2  0  0  0  0
 42 44  1  0  0  0  0
 42121  1  0  0  0  0
 42122  1  0  0  0  0
 43 47  1  0  0  0  0
 44123  1  0  0  0  0
 44124  1  0  0  0  0
 45 48  2  0  0  0  0
 46 49  1  0  0  0  0
 46125  1  0  0  0  0
 47 51  2  0  0  0  0
 47 52  1  0  0  0  0
 48 50  1  0  0  0  0
 48126  1  0  0  0  0
 49 50  2  0  0  0  0
 49127  1  0  0  0  0
 50129  1  0  0  0  0
 51 54  1  0  0  0  0
 51130  1  0  0  0  0
 52 55  2  0  0  0  0
 52131  1  0  0  0  0
 53 64  1  0  0  0  0
 54 61  2  0  0  0  0
 55 61  1  0  0  0  0
 55136  1  0  0  0  0
 56 57  1  0  0  0  0
 56 59  1  0  0  0  0
 56132  1  0  0  0  0
 56133  1  0  0  0  0
 57 60  1  0  0  0  0
 57134  1  0  0  0  0
 57135  1  0  0  0  0
 58137  1  0  0  0  0
 58138  1  0  0  0  0
 58139  1  0  0  0  0
 59 62  1  0  0  0  0
 59140  1  0  0  0  0
 59141  1  0  0  0  0
 60 63  1  0  0  0  0
 60142  1  0  0  0  0
 60143  1  0  0  0  0
 62 65  1  0  0  0  0
 62144  1  0  0  0  0
 62145  1  0  0  0  0
 63 66  1  0  0  0  0
 63146  1  0  0  0  0
 63147  1  0  0  0  0
 64 68  2  0  0  0  0
 64 69  1  0  0  0  0
 65148  1  0  0  0  0
 65149  1  0  0  0  0
 66150  1  0  0  0  0
 66151  1  0  0  0  0
 67 70  1  0  0  0  0
 67152  1  0  0  0  0
 67153  1  0  0  0  0
 68 74  1  0  0  0  0
 68154  1  0  0  0  0
 69 76  2  0  0  0  0
 69155  1  0  0  0  0
 70 71  1  0  0  0  0
 70156  1  0  0  0  0
 70157  1  0  0  0  0
 71 72  1  0  0  0  0
 71158  1  0  0  0  0
 71159  1  0  0  0  0
 72 73  2  0  0  0  0
 73160  1  0  0  0  0
 74 77  2  0  0  0  0
 75 78  2  0  0  0  0
 75161  1  0  0  0  0
 76 77  1  0  0  0  0
 76162  1  0  0  0  0
 78 79  1  0  0  0  0
 79 80  1  0  0  0  0
 79163  1  0  0  0  0
 79164  1  0  0  0  0
 80 82  1  0  0  0  0
 80165  1  0  0  0  0
 80166  1  0  0  0  0
 81167  1  0  0  0  0
 81168  1  0  0  0  0
 81169  1  0  0  0  0
 82170  1  0  0  0  0
 82171  1  0  0  0  0
 83172  1  0  0  0  0
 83173  1  0  0  0  0
 83174  1  0  0  0  0
M  END
> <PUBCHEM_COMPOUND_CID>
56833464

> <PUBCHEM_COMPOUND_CANONICALIZED>
1

> <PUBCHEM_CACTVS_COMPLEXITY>
1760

> <PUBCHEM_CACTVS_HBOND_ACCEPTOR>
14

> <PUBCHEM_CACTVS_HBOND_DONOR>
2

> <PUBCHEM_CACTVS_ROTATABLE_BOND>
38

> <PUBCHEM_CACTVS_SUBSKEYS>
AAADcfB/+AAAAAAAAAAAAAAAAAAAAeLEAAA8YMGCAAAAAGAB9AAAHgAYAAAADCzhngY+xpPIBACqAzV3VACCDAQ1sgAY2IE//MgPZjLEtZuXOSrk1hHa6Ye63JLOoAABAAAQUABAAAIAACCgACAACAAAAA==

> <PUBCHEM_IUPAC_OPENEYE_NAME>
4-[3-[1-[8-[4-[3-[4-[4-[indan-2-yl(propyl)amino]butylcarbamoyl]-2-methoxy-phenoxy]propyl]triazol-1-yl]octyl]triazol-4-yl]propoxy]-3-methoxy-N-[4-[4-(2-methoxyphenyl)piperazin-1-yl]butyl]benzamide

> <PUBCHEM_IUPAC_CAS_NAME>
4-[3-[1-[8-[4-[3-[4-[[4-[2,3-dihydro-1H-inden-2-yl(propyl)amino]butylamino]-oxomethyl]-2-methoxyphenoxy]propyl]-1-triazolyl]octyl]-4-triazolyl]propoxy]-3-methoxy-N-[4-[4-(2-methoxyphenyl)-1-piperazinyl]butyl]benzamide

> <PUBCHEM_IUPAC_NAME_MARKUP>
4-[3-[1-[8-[4-[3-[4-[4-[2,3-dihydro-1<I>H</I>-inden-2-yl(propyl)amino]butylcarbamoyl]-2-methoxyphenoxy]propyl]triazol-1-yl]octyl]triazol-4-yl]propoxy]-3-methoxy-<I>N</I>-[4-[4-(2-methoxyphenyl)piperazin-1-yl]butyl]benzamide

> <PUBCHEM_IUPAC_NAME>
4-[3-[1-[8-[4-[3-[4-[4-[2,3-dihydro-1H-inden-2-yl(propyl)amino]butylcarbamoyl]-2-methoxyphenoxy]propyl]triazol-1-yl]octyl]triazol-4-yl]propoxy]-3-methoxy-N-[4-[4-(2-methoxyphenyl)piperazin-1-yl]butyl]benzamide

> <PUBCHEM_IUPAC_SYSTEMATIC_NAME>
4-[3-[1-[8-[4-[3-[4-[4-[2,3-dihydro-1H-inden-2-yl(propyl)amino]butylcarbamoyl]-2-methoxy-phenoxy]propyl]-1,2,3-triazol-1-yl]octyl]-1,2,3-triazol-4-yl]propoxy]-3-methoxy-N-[4-[4-(2-methoxyphenyl)piperazin-1-yl]butyl]benzamide

> <PUBCHEM_IUPAC_TRADITIONAL_NAME>
4-[3-[1-[8-[4-[3-[4-[4-[indan-2-yl(propyl)amino]butylcarbamoyl]-2-methoxy-phenoxy]propyl]triazol-1-yl]octyl]triazol-4-yl]propoxy]-3-methoxy-N-[4-[4-(2-methoxyphenyl)piperazino]butyl]benzamide

> <PUBCHEM_IUPAC_INCHI>
InChI=1S/C65H91N11O7/c1-5-34-73(57-45-51-22-10-11-23-52(51)46-57)36-19-15-33-67-65(78)54-29-31-61(63(48-54)81-4)83-44-21-25-56-50-76(71-69-56)38-17-9-7-6-8-16-37-75-49-55(68-70-75)24-20-43-82-60-30-28-53(47-62(60)80-3)64(77)66-32-14-18-35-72-39-41-74(42-40-72)58-26-12-13-27-59(58)79-2/h10-13,22-23,26-31,47-50,57H,5-9,14-21,24-25,32-46H2,1-4H3,(H,66,77)(H,67,78)

> <PUBCHEM_IUPAC_INCHIKEY>
PGCKDCUFJMOFOO-UHFFFAOYSA-N

> <PUBCHEM_XLOGP3_AA>
10.7

> <PUBCHEM_EXACT_MASS>
1137.71029428

> <PUBCHEM_MOLECULAR_FORMULA>
C65H91N11O7

> <PUBCHEM_MOLECULAR_WEIGHT>
1138.5

> <PUBCHEM_OPENEYE_CAN_SMILES>
CCCN(CCCCNC(=O)C1=CC(=C(C=C1)OCCCC2=CN(N=N2)CCCCCCCCN3C=C(N=N3)CCCOC4=C(C=C(C=C4)C(=O)NCCCCN5CCN(CC5)C6=CC=CC=C6OC)OC)OC)C7CC8=CC=CC=C8C7

> <PUBCHEM_OPENEYE_ISO_SMILES>
CCCN(CCCCNC(=O)C1=CC(=C(C=C1)OCCCC2=CN(N=N2)CCCCCCCCN3C=C(N=N3)CCCOC4=C(C=C(C=C4)C(=O)NCCCCN5CCN(CC5)C6=CC=CC=C6OC)OC)OC)C7CC8=CC=CC=C8C7

> <PUBCHEM_CACTVS_TPSA>
176

> <PUBCHEM_MONOISOTOPIC_WEIGHT>
1137.71029428

> <PUBCHEM_TOTAL_CHARGE>
0

> <PUBCHEM_HEAVY_ATOM_COUNT>
83

> <PUBCHEM_ATOM_DEF_STEREO_COUNT>
0

> <PUBCHEM_ATOM_UDEF_STEREO_COUNT>
0

> <PUBCHEM_BOND_DEF_STEREO_COUNT>
0

> <PUBCHEM_BOND_UDEF_STEREO_COUNT>
0

> <PUBCHEM_ISOTOPIC_ATOM_COUNT>
0

> <PUBCHEM_COMPONENT_COUNT>
1

> <PUBCHEM_CACTVS_TAUTO_COUNT>
-1

> <PUBCHEM_COORDINATE_TYPE>
1
5
255

> <PUBCHEM_BONDANNOTATIONS>
13  15  8
13  73  8
14  16  8
14  75  8
15  17  8
16  18  8
17  72  8
18  78  8
22  23  8
22  27  8
23  28  8
27  31  8
28  32  8
31  32  8
41  45  8
41  46  8
45  48  8
46  49  8
47  51  8
47  52  8
48  50  8
49  50  8
51  54  8
52  55  8
54  61  8
55  61  8
64  68  8
64  69  8
68  74  8
69  76  8
72  73  8
74  77  8
75  78  8
76  77  8

$$$$
