1690520
  -OEChem-09292322092D

 37 39  0     0  0  0  0  0  0999 V2000
    4.5274    2.3863    0.0000 S   0  0  0  0  0  0  0  0  0  0  0  0
    5.3923   -0.8847    0.0000 N   0  0  0  0  0  0  0  0  0  0  0  0
    6.7328    0.2715    0.0000 N   0  0  0  0  0  0  0  0  0  0  0  0
    6.3518    2.0308    0.0000 N   0  0  0  0  0  0  0  0  0  0  0  0
    4.0274    0.8475    0.0000 C   0  0  0  0  0  0  0  0  0  0  0  0
    3.3424    0.0628    0.0000 C   0  0  0  0  0  0  0  0  0  0  0  0
    2.3219    0.2715    0.0000 C   0  0  0  0  0  0  0  0  0  0  0  0
    2.0000    1.2621    0.0000 C   0  0  0  0  0  0  0  0  0  0  0  0
    2.7029    2.0308    0.0000 C   0  0  0  0  0  0  0  0  0  0  0  0
    3.7183    1.7986    0.0000 C   0  0  0  0  0  0  0  0  0  0  0  0
    5.0274    0.8475    0.0000 C   0  0  0  0  0  0  0  0  0  0  0  0
    6.0528   -1.6355    0.0000 C   0  0  0  0  0  0  0  0  0  0  0  0
    5.7123    0.0628    0.0000 C   0  0  0  0  0  0  0  0  0  0  0  0
    5.3364    1.7986    0.0000 C   0  0  0  0  0  0  0  0  0  0  0  0
    6.7133   -2.3863    0.0000 C   0  0  0  0  0  0  0  0  0  0  0  0
    5.3020   -2.2960    0.0000 C   0  0  0  0  0  0  0  0  0  0  0  0
    6.8037   -0.9750    0.0000 C   0  0  0  0  0  0  0  0  0  0  0  0
    7.0547    1.2621    0.0000 C   0  0  0  0  0  0  0  0  0  0  0  0
    3.1160   -0.5145    0.0000 H   0  0  0  0  0  0  0  0  0  0  0  0
    3.8724   -0.2590    0.0000 H   0  0  0  0  0  0  0  0  0  0  0  0
    1.7081    0.1836    0.0000 H   0  0  0  0  0  0  0  0  0  0  0  0
    2.3034   -0.3483    0.0000 H   0  0  0  0  0  0  0  0  0  0  0  0
    1.6208    1.7526    0.0000 H   0  0  0  0  0  0  0  0  0  0  0  0
    1.4518    0.9724    0.0000 H   0  0  0  0  0  0  0  0  0  0  0  0
    2.9426    2.6026    0.0000 H   0  0  0  0  0  0  0  0  0  0  0  0
    2.1806    2.3647    0.0000 H   0  0  0  0  0  0  0  0  0  0  0  0
    4.7844   -1.0066    0.0000 H   0  0  0  0  0  0  0  0  0  0  0  0
    6.2478   -2.7958    0.0000 H   0  0  0  0  0  0  0  0  0  0  0  0
    7.1228   -2.8519    0.0000 H   0  0  0  0  0  0  0  0  0  0  0  0
    7.1788   -1.9768    0.0000 H   0  0  0  0  0  0  0  0  0  0  0  0
    4.8925   -1.8305    0.0000 H   0  0  0  0  0  0  0  0  0  0  0  0
    4.8365   -2.7055    0.0000 H   0  0  0  0  0  0  0  0  0  0  0  0
    5.7115   -2.7615    0.0000 H   0  0  0  0  0  0  0  0  0  0  0  0
    7.2132   -1.4405    0.0000 H   0  0  0  0  0  0  0  0  0  0  0  0
    7.2692   -0.5655    0.0000 H   0  0  0  0  0  0  0  0  0  0  0  0
    6.3942   -0.5095    0.0000 H   0  0  0  0  0  0  0  0  0  0  0  0
    7.6607    1.3934    0.0000 H   0  0  0  0  0  0  0  0  0  0  0  0
  1 10  1  0  0  0  0
  1 14  1  0  0  0  0
  2 12  1  0  0  0  0
  2 13  1  0  0  0  0
  2 27  1  0  0  0  0
  3 13  1  0  0  0  0
  3 18  2  0  0  0  0
  4 14  2  0  0  0  0
  4 18  1  0  0  0  0
  5  6  1  0  0  0  0
  5 10  2  0  0  0  0
  5 11  1  0  0  0  0
  6  7  1  0  0  0  0
  6 19  1  0  0  0  0
  6 20  1  0  0  0  0
  7  8  1  0  0  0  0
  7 21  1  0  0  0  0
  7 22  1  0  0  0  0
  8  9  1  0  0  0  0
  8 23  1  0  0  0  0
  8 24  1  0  0  0  0
  9 10  1  0  0  0  0
  9 25  1  0  0  0  0
  9 26  1  0  0  0  0
 11 13  2  0  0  0  0
 11 14  1  0  0  0  0
 12 15  1  0  0  0  0
 12 16  1  0  0  0  0
 12 17  1  0  0  0  0
 15 28  1  0  0  0  0
 15 29  1  0  0  0  0
 15 30  1  0  0  0  0
 16 31  1  0  0  0  0
 16 32  1  0  0  0  0
 16 33  1  0  0  0  0
 17 34  1  0  0  0  0
 17 35  1  0  0  0  0
 17 36  1  0  0  0  0
 18 37  1  0  0  0  0
M  END
> <PUBCHEM_COMPOUND_CID>
1690520

> <PUBCHEM_COMPOUND_CANONICALIZED>
1

> <PUBCHEM_CACTVS_COMPLEXITY>
302

> <PUBCHEM_CACTVS_HBOND_ACCEPTOR>
4

> <PUBCHEM_CACTVS_HBOND_DONOR>
1

> <PUBCHEM_CACTVS_ROTATABLE_BOND>
2

> <PUBCHEM_CACTVS_SUBSKEYS>
AAADceBzAABAAAAAAAAAAAAAAAAAASAAAAA8QAAAAAAAAFgB+AAAHAQQAAAADIiBWgQHsdbIEAikAgJhZACD0KlxCLgB2DAoRJiIKCLg2NGEBAxokALoyCcQgMAOgAAAAAAAAAAAAAAAAAgAAAAAAAAAAA==

> <PUBCHEM_IUPAC_OPENEYE_NAME>
N-tert-butyl-5,6,7,8-tetrahydrobenzothiopheno[2,3-d]pyrimidin-4-amine

> <PUBCHEM_IUPAC_CAS_NAME>
N-tert-butyl-5,6,7,8-tetrahydro-[1]benzothiolo[2,3-d]pyrimidin-4-amine

> <PUBCHEM_IUPAC_NAME_MARKUP>
<I>N</I>-<I>tert</I>-butyl-5,6,7,8-tetrahydro-[1]benzothiolo[2,3-d]pyrimidin-4-amine

> <PUBCHEM_IUPAC_NAME>
N-tert-butyl-5,6,7,8-tetrahydro-[1]benzothiolo[2,3-d]pyrimidin-4-amine

> <PUBCHEM_IUPAC_SYSTEMATIC_NAME>
N-tert-butyl-5,6,7,8-tetrahydro-[1]benzothiolo[2,3-d]pyrimidin-4-amine

> <PUBCHEM_IUPAC_TRADITIONAL_NAME>
tert-butyl(5,6,7,8-tetrahydrobenzothiopheno[2,3-d]pyrimidin-4-yl)amine

> <PUBCHEM_IUPAC_INCHI>
InChI=1S/C14H19N3S/c1-14(2,3)17-12-11-9-6-4-5-7-10(9)18-13(11)16-8-15-12/h8H,4-7H2,1-3H3,(H,15,16,17)

> <PUBCHEM_IUPAC_INCHIKEY>
KRYYDUIQPDQGLQ-UHFFFAOYSA-N

> <PUBCHEM_XLOGP3_AA>
4.1

> <PUBCHEM_EXACT_MASS>
261.12996879

> <PUBCHEM_MOLECULAR_FORMULA>
C14H19N3S

> <PUBCHEM_MOLECULAR_WEIGHT>
261.39

> <PUBCHEM_OPENEYE_CAN_SMILES>
CC(C)(C)NC1=C2C3=C(CCCC3)SC2=NC=N1

> <PUBCHEM_OPENEYE_ISO_SMILES>
CC(C)(C)NC1=C2C3=C(CCCC3)SC2=NC=N1

> <PUBCHEM_CACTVS_TPSA>
66

> <PUBCHEM_MONOISOTOPIC_WEIGHT>
261.12996879

> <PUBCHEM_TOTAL_CHARGE>
0

> <PUBCHEM_HEAVY_ATOM_COUNT>
18

> <PUBCHEM_ATOM_DEF_STEREO_COUNT>
0

> <PUBCHEM_ATOM_UDEF_STEREO_COUNT>
0

> <PUBCHEM_BOND_DEF_STEREO_COUNT>
0

> <PUBCHEM_BOND_UDEF_STEREO_COUNT>
0

> <PUBCHEM_ISOTOPIC_ATOM_COUNT>
0

> <PUBCHEM_COMPONENT_COUNT>
1

> <PUBCHEM_CACTVS_TAUTO_COUNT>
-1

> <PUBCHEM_COORDINATE_TYPE>
1
5
255

> <PUBCHEM_BONDANNOTATIONS>
1  10  8
1  14  8
11  13  8
11  14  8
3  13  8
3  18  8
4  14  8
4  18  8
5  10  8
5  11  8

$$$$
