44333374
  -OEChem-09292322112D

 35 37  0     1  0  0  0  0  0999 V2000
    2.5836   -1.5894    0.0000 S   0  0  0  0  0  0  0  0  0  0  0  0
    4.3798    1.2569    0.0000 O   0  0  0  0  0  0  0  0  0  0  0  0
    6.1719    0.2222    0.0000 N   0  0  3  0  0  0  0  0  0  0  0  0
    5.2619   -0.2846    0.0000 C   0  0  3  0  0  0  0  0  0  0  0  0
    4.3958    0.2154    0.0000 C   0  0  3  0  0  0  0  0  0  0  0  0
    5.2619   -1.2846    0.0000 C   0  0  0  0  0  0  0  0  0  0  0  0
    3.5298   -0.2846    0.0000 C   0  0  0  0  0  0  0  0  0  0  0  0
    4.3958   -1.7846    0.0000 C   0  0  0  0  0  0  0  0  0  0  0  0
    6.1799    1.2638    0.0000 C   0  0  0  0  0  0  0  0  0  0  0  0
    3.5298   -1.2846    0.0000 C   0  0  0  0  0  0  0  0  0  0  0  0
    7.0321   -0.2878    0.0000 C   0  0  0  0  0  0  0  0  0  0  0  0
    5.2778    1.7846    0.0000 C   0  0  0  0  0  0  0  0  0  0  0  0
    2.5836    0.0201    0.0000 C   0  0  0  0  0  0  0  0  0  0  0  0
    7.9038    0.2022    0.0000 C   0  0  0  0  0  0  0  0  0  0  0  0
    2.0000   -0.7846    0.0000 C   0  0  0  0  0  0  0  0  0  0  0  0
    8.7640   -0.3078    0.0000 C   0  0  0  0  0  0  0  0  0  0  0  0
    5.7964   -0.5988    0.0000 H   0  0  0  0  0  0  0  0  0  0  0  0
    4.9304    0.5295    0.0000 H   0  0  0  0  0  0  0  0  0  0  0  0
    5.4739   -1.8672    0.0000 H   0  0  0  0  0  0  0  0  0  0  0  0
    5.8725   -1.1770    0.0000 H   0  0  0  0  0  0  0  0  0  0  0  0
    3.9973   -2.2596    0.0000 H   0  0  0  0  0  0  0  0  0  0  0  0
    4.7944   -2.2596    0.0000 H   0  0  0  0  0  0  0  0  0  0  0  0
    6.7899    1.1530    0.0000 H   0  0  0  0  0  0  0  0  0  0  0  0
    6.3935    1.8459    0.0000 H   0  0  0  0  0  0  0  0  0  0  0  0
    6.6281   -0.7581    0.0000 H   0  0  0  0  0  0  0  0  0  0  0  0
    7.4251   -0.7673    0.0000 H   0  0  0  0  0  0  0  0  0  0  0  0
    5.6751    2.2606    0.0000 H   0  0  0  0  0  0  0  0  0  0  0  0
    4.8769    2.2575    0.0000 H   0  0  0  0  0  0  0  0  0  0  0  0
    2.3910    0.6094    0.0000 H   0  0  0  0  0  0  0  0  0  0  0  0
    8.3078    0.6725    0.0000 H   0  0  0  0  0  0  0  0  0  0  0  0
    7.5108    0.6817    0.0000 H   0  0  0  0  0  0  0  0  0  0  0  0
    1.3800   -0.7846    0.0000 H   0  0  0  0  0  0  0  0  0  0  0  0
    8.4478   -0.8411    0.0000 H   0  0  0  0  0  0  0  0  0  0  0  0
    9.2973   -0.6240    0.0000 H   0  0  0  0  0  0  0  0  0  0  0  0
    9.0802    0.2255    0.0000 H   0  0  0  0  0  0  0  0  0  0  0  0
  1 10  1  0  0  0  0
  1 15  1  0  0  0  0
  2  5  1  0  0  0  0
  2 12  1  0  0  0  0
  3  4  1  0  0  0  0
  3  9  1  0  0  0  0
  3 11  1  0  0  0  0
  4  5  1  0  0  0  0
  4  6  1  0  0  0  0
  4 17  1  0  0  0  0
  5  7  1  0  0  0  0
  5 18  1  0  0  0  0
  6  8  1  0  0  0  0
  6 19  1  0  0  0  0
  6 20  1  0  0  0  0
  7 10  2  0  0  0  0
  7 13  1  0  0  0  0
  8 10  1  0  0  0  0
  8 21  1  0  0  0  0
  8 22  1  0  0  0  0
  9 12  1  0  0  0  0
  9 23  1  0  0  0  0
  9 24  1  0  0  0  0
 11 14  1  0  0  0  0
 11 25  1  0  0  0  0
 11 26  1  0  0  0  0
 12 27  1  0  0  0  0
 12 28  1  0  0  0  0
 13 15  2  0  0  0  0
 13 29  1  0  0  0  0
 14 16  1  0  0  0  0
 14 30  1  0  0  0  0
 14 31  1  0  0  0  0
 15 32  1  0  0  0  0
 16 33  1  0  0  0  0
 16 34  1  0  0  0  0
 16 35  1  0  0  0  0
M  END
> <PUBCHEM_COMPOUND_CID>
44333374

> <PUBCHEM_COMPOUND_CANONICALIZED>
1

> <PUBCHEM_CACTVS_COMPLEXITY>
248

> <PUBCHEM_CACTVS_HBOND_ACCEPTOR>
3

> <PUBCHEM_CACTVS_HBOND_DONOR>
0

> <PUBCHEM_CACTVS_ROTATABLE_BOND>
2

> <PUBCHEM_CACTVS_SUBSKEYS>
AAADceByIABAAAAAAAAAAAAAAAAAASAAAAA8QAAAAAAAAEixgAAAHgQAAAAADDzl2AayAYMABAiEAiBCAAADAIAgCBBIiBgICIgKJiKgsRmHEAAkwAG4qAeQwKAOAAAAAAAAAAAACACIABggAAAAAAAAAA==

> <PUBCHEM_IUPAC_OPENEYE_NAME>
4-propyl-2,3,4a,5,6,9b-hexahydrothieno[2,3-h][1,4]benzoxazine

> <PUBCHEM_IUPAC_CAS_NAME>
4-propyl-2,3,4a,5,6,9b-hexahydrothieno[2,3-h][1,4]benzoxazine

> <PUBCHEM_IUPAC_NAME_MARKUP>
4-propyl-2,3,4<I>a</I>,5,6,9<I>b</I>-hexahydrothieno[2,3-h][1,4]benzoxazine

> <PUBCHEM_IUPAC_NAME>
4-propyl-2,3,4a,5,6,9b-hexahydrothieno[2,3-h][1,4]benzoxazine

> <PUBCHEM_IUPAC_SYSTEMATIC_NAME>
4-propyl-2,3,4a,5,6,9b-hexahydrothieno[2,3-h][1,4]benzoxazine

> <PUBCHEM_IUPAC_TRADITIONAL_NAME>
4-propyl-2,3,4a,5,6,9b-hexahydrothieno[2,3-h][1,4]benzoxazine

> <PUBCHEM_IUPAC_INCHI>
InChI=1S/C13H19NOS/c1-2-6-14-7-8-15-13-10-5-9-16-12(10)4-3-11(13)14/h5,9,11,13H,2-4,6-8H2,1H3

> <PUBCHEM_IUPAC_INCHIKEY>
GRHVCLHQXSTVGR-UHFFFAOYSA-N

> <PUBCHEM_XLOGP3_AA>
2.5

> <PUBCHEM_EXACT_MASS>
237.11873540

> <PUBCHEM_MOLECULAR_FORMULA>
C13H19NOS

> <PUBCHEM_MOLECULAR_WEIGHT>
237.36

> <PUBCHEM_OPENEYE_CAN_SMILES>
CCCN1CCOC2C1CCC3=C2C=CS3

> <PUBCHEM_OPENEYE_ISO_SMILES>
CCCN1CCOC2C1CCC3=C2C=CS3

> <PUBCHEM_CACTVS_TPSA>
40.7

> <PUBCHEM_MONOISOTOPIC_WEIGHT>
237.11873540

> <PUBCHEM_TOTAL_CHARGE>
0

> <PUBCHEM_HEAVY_ATOM_COUNT>
16

> <PUBCHEM_ATOM_DEF_STEREO_COUNT>
0

> <PUBCHEM_ATOM_UDEF_STEREO_COUNT>
2

> <PUBCHEM_BOND_DEF_STEREO_COUNT>
0

> <PUBCHEM_BOND_UDEF_STEREO_COUNT>
0

> <PUBCHEM_ISOTOPIC_ATOM_COUNT>
0

> <PUBCHEM_COMPONENT_COUNT>
1

> <PUBCHEM_CACTVS_TAUTO_COUNT>
-1

> <PUBCHEM_COORDINATE_TYPE>
1
5
255

> <PUBCHEM_BONDANNOTATIONS>
1  10  8
1  15  8
13  15  8
5  2  3
4  6  3
7  10  8
7  13  8

$$$$
