21969201
  -OEChem-09292322212D

 65 69  0     1  0  0  0  0  0999 V2000
   12.8478    4.2013    0.0000 O   0  0  0  0  0  0  0  0  0  0  0  0
    3.8640    0.1738    0.0000 O   0  0  0  0  0  0  0  0  0  0  0  0
    8.3993    2.8997    0.0000 N   0  0  3  0  0  0  0  0  0  0  0  0
    5.5103   -0.3643    0.0000 N   0  0  0  0  0  0  0  0  0  0  0  0
    9.3455    3.2044    0.0000 C   0  0  2  0  0  0  0  0  0  0  0  0
    9.3455    4.2044    0.0000 C   0  0  1  0  0  0  0  0  0  0  0  0
    8.3993    4.5091    0.0000 C   0  0  0  0  0  0  0  0  0  0  0  0
   10.2116    2.7044    0.0000 C   0  0  0  0  0  0  0  0  0  0  0  0
    7.8157    3.7044    0.0000 C   0  0  0  0  0  0  0  0  0  0  0  0
   10.2116    4.7044    0.0000 C   0  0  0  0  0  0  0  0  0  0  0  0
   11.0776    3.2044    0.0000 C   0  0  0  0  0  0  0  0  0  0  0  0
   11.0776    4.2044    0.0000 C   0  0  0  0  0  0  0  0  0  0  0  0
    8.0887    1.9492    0.0000 C   0  0  0  0  0  0  0  0  0  0  0  0
    7.1102    1.7429    0.0000 C   0  0  0  0  0  0  0  0  0  0  0  0
   10.1955    5.7459    0.0000 C   0  0  0  0  0  0  0  0  0  0  0  0
   11.9876    4.7112    0.0000 C   0  0  0  0  0  0  0  0  0  0  0  0
    6.7995    0.7924    0.0000 C   0  0  0  0  0  0  0  0  0  0  0  0
   11.0935    6.2737    0.0000 C   0  0  0  0  0  0  0  0  0  0  0  0
   11.9956    5.7528    0.0000 C   0  0  0  0  0  0  0  0  0  0  0  0
    5.8210    0.5862    0.0000 C   0  0  0  0  0  0  0  0  0  0  0  0
    4.5318   -0.5705    0.0000 C   0  0  0  0  0  0  0  0  0  0  0  0
    4.2212   -1.5211    0.0000 C   0  0  0  0  0  0  0  0  0  0  0  0
    4.8890   -2.2654    0.0000 C   0  0  0  0  0  0  0  0  0  0  0  0
    3.2426   -1.7273    0.0000 C   0  0  0  0  0  0  0  0  0  0  0  0
    4.5783   -3.2159    0.0000 C   0  0  0  0  0  0  0  0  0  0  0  0
    2.9320   -2.6778    0.0000 C   0  0  0  0  0  0  0  0  0  0  0  0
    3.5998   -3.4221    0.0000 C   0  0  0  0  0  0  0  0  0  0  0  0
    3.2892   -4.3726    0.0000 C   0  0  0  0  0  0  0  0  0  0  0  0
    2.3107   -4.5788    0.0000 C   0  0  0  0  0  0  0  0  0  0  0  0
    3.9570   -5.1169    0.0000 C   0  0  0  0  0  0  0  0  0  0  0  0
    2.0000   -5.5294    0.0000 C   0  0  0  0  0  0  0  0  0  0  0  0
    3.6464   -6.0674    0.0000 C   0  0  0  0  0  0  0  0  0  0  0  0
    2.6678   -6.2737    0.0000 C   0  0  0  0  0  0  0  0  0  0  0  0
    9.2556    2.3592    0.0000 H   0  0  0  0  0  0  0  0  0  0  0  0
    9.2556    5.0496    0.0000 H   0  0  0  0  0  0  0  0  0  0  0  0
    8.6504    5.0760    0.0000 H   0  0  0  0  0  0  0  0  0  0  0  0
    7.8619    4.8184    0.0000 H   0  0  0  0  0  0  0  0  0  0  0  0
    9.8130    2.2295    0.0000 H   0  0  0  0  0  0  0  0  0  0  0  0
   10.6101    2.2295    0.0000 H   0  0  0  0  0  0  0  0  0  0  0  0
    7.3548    4.1191    0.0000 H   0  0  0  0  0  0  0  0  0  0  0  0
    7.3548    3.2897    0.0000 H   0  0  0  0  0  0  0  0  0  0  0  0
   11.2896    2.6218    0.0000 H   0  0  0  0  0  0  0  0  0  0  0  0
   11.6882    3.3121    0.0000 H   0  0  0  0  0  0  0  0  0  0  0  0
    8.1092    1.3295    0.0000 H   0  0  0  0  0  0  0  0  0  0  0  0
    8.7025    1.8618    0.0000 H   0  0  0  0  0  0  0  0  0  0  0  0
    7.0896    2.3626    0.0000 H   0  0  0  0  0  0  0  0  0  0  0  0
    6.4963    1.8303    0.0000 H   0  0  0  0  0  0  0  0  0  0  0  0
    9.6550    6.0497    0.0000 H   0  0  0  0  0  0  0  0  0  0  0  0
    6.8201    0.1728    0.0000 H   0  0  0  0  0  0  0  0  0  0  0  0
    7.4133    0.7051    0.0000 H   0  0  0  0  0  0  0  0  0  0  0  0
   11.0912    6.8937    0.0000 H   0  0  0  0  0  0  0  0  0  0  0  0
   12.5338    6.0608    0.0000 H   0  0  0  0  0  0  0  0  0  0  0  0
    5.8004    1.2058    0.0000 H   0  0  0  0  0  0  0  0  0  0  0  0
    5.2072    0.6735    0.0000 H   0  0  0  0  0  0  0  0  0  0  0  0
   13.3883    4.5050    0.0000 H   0  0  0  0  0  0  0  0  0  0  0  0
    5.9244   -0.8258    0.0000 H   0  0  0  0  0  0  0  0  0  0  0  0
    5.4957   -2.1375    0.0000 H   0  0  0  0  0  0  0  0  0  0  0  0
    2.8286   -1.2658    0.0000 H   0  0  0  0  0  0  0  0  0  0  0  0
    4.9924   -3.6774    0.0000 H   0  0  0  0  0  0  0  0  0  0  0  0
    2.3253   -2.8057    0.0000 H   0  0  0  0  0  0  0  0  0  0  0  0
    1.8966   -4.1174    0.0000 H   0  0  0  0  0  0  0  0  0  0  0  0
    4.5637   -4.9891    0.0000 H   0  0  0  0  0  0  0  0  0  0  0  0
    1.3933   -5.6572    0.0000 H   0  0  0  0  0  0  0  0  0  0  0  0
    4.0604   -6.5289    0.0000 H   0  0  0  0  0  0  0  0  0  0  0  0
    2.4752   -6.8630    0.0000 H   0  0  0  0  0  0  0  0  0  0  0  0
  1 16  1  0  0  0  0
  1 55  1  0  0  0  0
  2 21  2  0  0  0  0
  3  5  1  0  0  0  0
  3  9  1  0  0  0  0
  3 13  1  0  0  0  0
  4 20  1  0  0  0  0
  4 21  1  0  0  0  0
  4 56  1  0  0  0  0
  5  6  1  0  0  0  0
  5  8  1  0  0  0  0
  5 34  1  1  0  0  0
  6  7  1  0  0  0  0
  6 10  1  0  0  0  0
  6 35  1  6  0  0  0
  7  9  1  0  0  0  0
  7 36  1  0  0  0  0
  7 37  1  0  0  0  0
  8 11  1  0  0  0  0
  8 38  1  0  0  0  0
  8 39  1  0  0  0  0
  9 40  1  0  0  0  0
  9 41  1  0  0  0  0
 10 12  2  0  0  0  0
 10 15  1  0  0  0  0
 11 12  1  0  0  0  0
 11 42  1  0  0  0  0
 11 43  1  0  0  0  0
 12 16  1  0  0  0  0
 13 14  1  0  0  0  0
 13 44  1  0  0  0  0
 13 45  1  0  0  0  0
 14 17  1  0  0  0  0
 14 46  1  0  0  0  0
 14 47  1  0  0  0  0
 15 18  2  0  0  0  0
 15 48  1  0  0  0  0
 16 19  2  0  0  0  0
 17 20  1  0  0  0  0
 17 49  1  0  0  0  0
 17 50  1  0  0  0  0
 18 19  1  0  0  0  0
 18 51  1  0  0  0  0
 19 52  1  0  0  0  0
 20 53  1  0  0  0  0
 20 54  1  0  0  0  0
 21 22  1  0  0  0  0
 22 23  2  0  0  0  0
 22 24  1  0  0  0  0
 23 25  1  0  0  0  0
 23 57  1  0  0  0  0
 24 26  2  0  0  0  0
 24 58  1  0  0  0  0
 25 27  2  0  0  0  0
 25 59  1  0  0  0  0
 26 27  1  0  0  0  0
 26 60  1  0  0  0  0
 27 28  1  0  0  0  0
 28 29  2  0  0  0  0
 28 30  1  0  0  0  0
 29 31  1  0  0  0  0
 29 61  1  0  0  0  0
 30 32  2  0  0  0  0
 30 62  1  0  0  0  0
 31 33  2  0  0  0  0
 31 63  1  0  0  0  0
 32 33  1  0  0  0  0
 32 64  1  0  0  0  0
 33 65  1  0  0  0  0
M  END
> <PUBCHEM_COMPOUND_CID>
21969201

> <PUBCHEM_COMPOUND_CANONICALIZED>
1

> <PUBCHEM_CACTVS_COMPLEXITY>
625

> <PUBCHEM_CACTVS_HBOND_ACCEPTOR>
3

> <PUBCHEM_CACTVS_HBOND_DONOR>
2

> <PUBCHEM_CACTVS_ROTATABLE_BOND>
7

> <PUBCHEM_CACTVS_SUBSKEYS>
AAADcfB7MAAAAAAAAAAAAAAAAAAAAWAAAAAwYMGAAAAAAFjBUAAAHgAQCAAADSzBmAQwBoPAAgCIAiFSEACCAAAkIAAIiIEODMgIJjKClROEcQhk1hGImYeY2POOwAABAAAYAACQAAaAADQAAAAAAAAAAA==

> <PUBCHEM_IUPAC_OPENEYE_NAME>
N-[4-[(3aS,9bS)-6-hydroxy-1,2,3a,4,5,9b-hexahydrobenzo[e]indol-3-yl]butyl]-4-phenyl-benzamide

> <PUBCHEM_IUPAC_CAS_NAME>
N-[4-[(3aS,9bS)-6-hydroxy-1,2,3a,4,5,9b-hexahydrobenzo[e]indol-3-yl]butyl]-4-phenylbenzamide

> <PUBCHEM_IUPAC_NAME_MARKUP>
<I>N</I>-[4-[(3<I>a</I><I>S</I>,9<I>b</I><I>S</I>)-6-hydroxy-1,2,3<I>a</I>,4,5,9<I>b</I>-hexahydrobenzo[e]indol-3-yl]butyl]-4-phenylbenzamide

> <PUBCHEM_IUPAC_NAME>
N-[4-[(3aS,9bS)-6-hydroxy-1,2,3a,4,5,9b-hexahydrobenzo[e]indol-3-yl]butyl]-4-phenylbenzamide

> <PUBCHEM_IUPAC_SYSTEMATIC_NAME>
N-[4-[(3aS,9bS)-6-oxidanyl-1,2,3a,4,5,9b-hexahydrobenzo[e]indol-3-yl]butyl]-4-phenyl-benzamide

> <PUBCHEM_IUPAC_TRADITIONAL_NAME>
N-[4-[(3aS,9bS)-6-hydroxy-1,2,3a,4,5,9b-hexahydrobenz[e]indol-3-yl]butyl]-4-phenyl-benzamide

> <PUBCHEM_IUPAC_INCHI>
InChI=1S/C29H32N2O2/c32-28-10-6-9-24-25-17-20-31(27(25)16-15-26(24)28)19-5-4-18-30-29(33)23-13-11-22(12-14-23)21-7-2-1-3-8-21/h1-3,6-14,25,27,32H,4-5,15-20H2,(H,30,33)/t25-,27-/m0/s1

> <PUBCHEM_IUPAC_INCHIKEY>
CYBHGHQYVGGXRB-BDYUSTAISA-N

> <PUBCHEM_XLOGP3_AA>
5.6

> <PUBCHEM_EXACT_MASS>
440.246378268

> <PUBCHEM_MOLECULAR_FORMULA>
C29H32N2O2

> <PUBCHEM_MOLECULAR_WEIGHT>
440.6

> <PUBCHEM_OPENEYE_CAN_SMILES>
C1CC2=C(C=CC=C2O)C3C1N(CC3)CCCCNC(=O)C4=CC=C(C=C4)C5=CC=CC=C5

> <PUBCHEM_OPENEYE_ISO_SMILES>
C1CC2=C(C=CC=C2O)[C@H]3[C@H]1N(CC3)CCCCNC(=O)C4=CC=C(C=C4)C5=CC=CC=C5

> <PUBCHEM_CACTVS_TPSA>
52.6

> <PUBCHEM_MONOISOTOPIC_WEIGHT>
440.246378268

> <PUBCHEM_TOTAL_CHARGE>
0

> <PUBCHEM_HEAVY_ATOM_COUNT>
33

> <PUBCHEM_ATOM_DEF_STEREO_COUNT>
2

> <PUBCHEM_ATOM_UDEF_STEREO_COUNT>
0

> <PUBCHEM_BOND_DEF_STEREO_COUNT>
0

> <PUBCHEM_BOND_UDEF_STEREO_COUNT>
0

> <PUBCHEM_ISOTOPIC_ATOM_COUNT>
0

> <PUBCHEM_COMPONENT_COUNT>
1

> <PUBCHEM_CACTVS_TAUTO_COUNT>
-1

> <PUBCHEM_COORDINATE_TYPE>
1
5
255

> <PUBCHEM_BONDANNOTATIONS>
10  12  8
10  15  8
12  16  8
15  18  8
16  19  8
18  19  8
22  23  8
22  24  8
23  25  8
24  26  8
25  27  8
26  27  8
28  29  8
28  30  8
29  31  8
30  32  8
31  33  8
32  33  8
5  34  5
6  35  6

$$$$
