44436756
  -OEChem-09292322252D

 73 78  0     0  0  0  0  0  0999 V2000
    2.0000    6.2664    0.0000 Cl  0  0  0  0  0  0  0  0  0  0  0  0
    9.3015   -2.0607    0.0000 O   0  0  0  0  0  0  0  0  0  0  0  0
    5.8374    1.9393    0.0000 N   0  0  0  0  0  0  0  0  0  0  0  0
    7.4909    4.6530    0.0000 N   0  0  0  0  0  0  0  0  0  0  0  0
    7.5694   -2.0607    0.0000 N   0  0  0  0  0  0  0  0  0  0  0  0
    5.8374    3.9393    0.0000 C   0  0  0  0  0  0  0  0  0  0  0  0
    6.7034    2.4393    0.0000 C   0  0  0  0  0  0  0  0  0  0  0  0
    4.9714    2.4393    0.0000 C   0  0  0  0  0  0  0  0  0  0  0  0
    6.7034    3.4393    0.0000 C   0  0  0  0  0  0  0  0  0  0  0  0
    4.9714    3.4393    0.0000 C   0  0  0  0  0  0  0  0  0  0  0  0
    5.8374    0.9393    0.0000 C   0  0  0  0  0  0  0  0  0  0  0  0
    5.8374    4.9393    0.0000 C   0  0  0  0  0  0  0  0  0  0  0  0
    6.7034    0.4393    0.0000 C   0  0  0  0  0  0  0  0  0  0  0  0
    4.9364    5.3732    0.0000 C   0  0  0  0  0  0  0  0  0  0  0  0
    6.7384    5.3732    0.0000 C   0  0  0  0  0  0  0  0  0  0  0  0
    4.7139    6.3481    0.0000 C   0  0  0  0  0  0  0  0  0  0  0  0
    5.3374    7.1300    0.0000 C   0  0  0  0  0  0  0  0  0  0  0  0
    6.9609    6.3481    0.0000 C   0  0  0  0  0  0  0  0  0  0  0  0
    6.3374    7.1300    0.0000 C   0  0  0  0  0  0  0  0  0  0  0  0
    6.7034   -0.5607    0.0000 C   0  0  0  0  0  0  0  0  0  0  0  0
    4.1839    4.6530    0.0000 C   0  0  0  0  0  0  0  0  0  0  0  0
    7.5694   -1.0607    0.0000 C   0  0  0  0  0  0  0  0  0  0  0  0
    3.7234    6.6705    0.0000 C   0  0  0  0  0  0  0  0  0  0  0  0
    7.9514    6.6704    0.0000 C   0  0  0  0  0  0  0  0  0  0  0  0
    3.1862    4.9524    0.0000 C   0  0  0  0  0  0  0  0  0  0  0  0
    2.9544    5.9679    0.0000 C   0  0  0  0  0  0  0  0  0  0  0  0
    8.7204    5.9679    0.0000 C   0  0  0  0  0  0  0  0  0  0  0  0
    8.4886    4.9524    0.0000 C   0  0  0  0  0  0  0  0  0  0  0  0
    8.4354   -2.5607    0.0000 C   0  0  0  0  0  0  0  0  0  0  0  0
    8.4354   -3.5607    0.0000 C   0  0  0  0  0  0  0  0  0  0  0  0
    9.3015   -4.0607    0.0000 C   0  0  0  0  0  0  0  0  0  0  0  0
    7.5694   -4.0607    0.0000 C   0  0  0  0  0  0  0  0  0  0  0  0
    9.3015   -5.0607    0.0000 C   0  0  0  0  0  0  0  0  0  0  0  0
    8.4354   -5.5607    0.0000 C   0  0  0  0  0  0  0  0  0  0  0  0
    7.5694   -5.0607    0.0000 C   0  0  0  0  0  0  0  0  0  0  0  0
   10.2114   -5.5676    0.0000 C   0  0  0  0  0  0  0  0  0  0  0  0
    8.4194   -6.6022    0.0000 C   0  0  0  0  0  0  0  0  0  0  0  0
   10.2195   -6.6092    0.0000 C   0  0  0  0  0  0  0  0  0  0  0  0
    9.3174   -7.1300    0.0000 C   0  0  0  0  0  0  0  0  0  0  0  0
    6.9155    1.8567    0.0000 H   0  0  0  0  0  0  0  0  0  0  0  0
    7.3140    2.5470    0.0000 H   0  0  0  0  0  0  0  0  0  0  0  0
    4.3608    2.5470    0.0000 H   0  0  0  0  0  0  0  0  0  0  0  0
    4.7593    1.8567    0.0000 H   0  0  0  0  0  0  0  0  0  0  0  0
    7.3140    3.3316    0.0000 H   0  0  0  0  0  0  0  0  0  0  0  0
    6.9155    4.0219    0.0000 H   0  0  0  0  0  0  0  0  0  0  0  0
    4.7593    4.0219    0.0000 H   0  0  0  0  0  0  0  0  0  0  0  0
    4.3608    3.3317    0.0000 H   0  0  0  0  0  0  0  0  0  0  0  0
    5.2268    1.0470    0.0000 H   0  0  0  0  0  0  0  0  0  0  0  0
    5.6253    0.3567    0.0000 H   0  0  0  0  0  0  0  0  0  0  0  0
    7.3140    0.3316    0.0000 H   0  0  0  0  0  0  0  0  0  0  0  0
    6.9155    1.0219    0.0000 H   0  0  0  0  0  0  0  0  0  0  0  0
    5.4754    7.7344    0.0000 H   0  0  0  0  0  0  0  0  0  0  0  0
    4.7788    7.3990    0.0000 H   0  0  0  0  0  0  0  0  0  0  0  0
    6.8960    7.3990    0.0000 H   0  0  0  0  0  0  0  0  0  0  0  0
    6.1995    7.7344    0.0000 H   0  0  0  0  0  0  0  0  0  0  0  0
    6.0928   -0.4530    0.0000 H   0  0  0  0  0  0  0  0  0  0  0  0
    6.4914   -1.1433    0.0000 H   0  0  0  0  0  0  0  0  0  0  0  0
    4.3288    4.0502    0.0000 H   0  0  0  0  0  0  0  0  0  0  0  0
    8.1800   -1.1684    0.0000 H   0  0  0  0  0  0  0  0  0  0  0  0
    7.7815   -0.4781    0.0000 H   0  0  0  0  0  0  0  0  0  0  0  0
    3.5925    7.2765    0.0000 H   0  0  0  0  0  0  0  0  0  0  0  0
    8.0824    7.2765    0.0000 H   0  0  0  0  0  0  0  0  0  0  0  0
    2.7333    4.5289    0.0000 H   0  0  0  0  0  0  0  0  0  0  0  0
    9.3122    6.1529    0.0000 H   0  0  0  0  0  0  0  0  0  0  0  0
    8.9415    4.5289    0.0000 H   0  0  0  0  0  0  0  0  0  0  0  0
    7.0325   -2.3707    0.0000 H   0  0  0  0  0  0  0  0  0  0  0  0
    9.8384   -3.7507    0.0000 H   0  0  0  0  0  0  0  0  0  0  0  0
    7.0325   -3.7507    0.0000 H   0  0  0  0  0  0  0  0  0  0  0  0
    7.0325   -5.3707    0.0000 H   0  0  0  0  0  0  0  0  0  0  0  0
   10.7448   -5.2514    0.0000 H   0  0  0  0  0  0  0  0  0  0  0  0
    7.8789   -6.9060    0.0000 H   0  0  0  0  0  0  0  0  0  0  0  0
   10.7576   -6.9171    0.0000 H   0  0  0  0  0  0  0  0  0  0  0  0
    9.3150   -7.7500    0.0000 H   0  0  0  0  0  0  0  0  0  0  0  0
  1 26  1  0  0  0  0
  2 29  2  0  0  0  0
  3  7  1  0  0  0  0
  3  8  1  0  0  0  0
  3 11  1  0  0  0  0
  4 15  1  0  0  0  0
  4 28  2  0  0  0  0
  5 22  1  0  0  0  0
  5 29  1  0  0  0  0
  5 66  1  0  0  0  0
  6  9  1  0  0  0  0
  6 10  1  0  0  0  0
  6 12  2  0  0  0  0
  7  9  1  0  0  0  0
  7 40  1  0  0  0  0
  7 41  1  0  0  0  0
  8 10  1  0  0  0  0
  8 42  1  0  0  0  0
  8 43  1  0  0  0  0
  9 44  1  0  0  0  0
  9 45  1  0  0  0  0
 10 46  1  0  0  0  0
 10 47  1  0  0  0  0
 11 13  1  0  0  0  0
 11 48  1  0  0  0  0
 11 49  1  0  0  0  0
 12 14  1  0  0  0  0
 12 15  1  0  0  0  0
 13 20  1  0  0  0  0
 13 50  1  0  0  0  0
 13 51  1  0  0  0  0
 14 16  2  0  0  0  0
 14 21  1  0  0  0  0
 15 18  2  0  0  0  0
 16 17  1  0  0  0  0
 16 23  1  0  0  0  0
 17 19  1  0  0  0  0
 17 52  1  0  0  0  0
 17 53  1  0  0  0  0
 18 19  1  0  0  0  0
 18 24  1  0  0  0  0
 19 54  1  0  0  0  0
 19 55  1  0  0  0  0
 20 22  1  0  0  0  0
 20 56  1  0  0  0  0
 20 57  1  0  0  0  0
 21 25  2  0  0  0  0
 21 58  1  0  0  0  0
 22 59  1  0  0  0  0
 22 60  1  0  0  0  0
 23 26  2  0  0  0  0
 23 61  1  0  0  0  0
 24 27  2  0  0  0  0
 24 62  1  0  0  0  0
 25 26  1  0  0  0  0
 25 63  1  0  0  0  0
 27 28  1  0  0  0  0
 27 64  1  0  0  0  0
 28 65  1  0  0  0  0
 29 30  1  0  0  0  0
 30 31  2  0  0  0  0
 30 32  1  0  0  0  0
 31 33  1  0  0  0  0
 31 67  1  0  0  0  0
 32 35  2  0  0  0  0
 32 68  1  0  0  0  0
 33 34  1  0  0  0  0
 33 36  2  0  0  0  0
 34 35  1  0  0  0  0
 34 37  2  0  0  0  0
 35 69  1  0  0  0  0
 36 38  1  0  0  0  0
 36 70  1  0  0  0  0
 37 39  1  0  0  0  0
 37 71  1  0  0  0  0
 38 39  2  0  0  0  0
 38 72  1  0  0  0  0
 39 73  1  0  0  0  0
M  END
> <PUBCHEM_COMPOUND_CID>
44436756

> <PUBCHEM_COMPOUND_CANONICALIZED>
1

> <PUBCHEM_CACTVS_COMPLEXITY>
849

> <PUBCHEM_CACTVS_HBOND_ACCEPTOR>
3

> <PUBCHEM_CACTVS_HBOND_DONOR>
1

> <PUBCHEM_CACTVS_ROTATABLE_BOND>
6

> <PUBCHEM_CACTVS_SUBSKEYS>
AAADcfB/IAAEAAAAAAAAAAAAAAAAAAAAAAA8eMECBgAAAADB1AAAHgIQAAAADArBniQ8gNPIEACoAzV3VACCgCA1ByAI2KE4ZtgIIPLBl5GEIQhglgDIyYcYiMCOxAACIAAQAACIAARAACAAAAAAAAAAAA==

> <PUBCHEM_IUPAC_OPENEYE_NAME>
N-[4-[4-(13-chloro-4-azatricyclo[9.4.0.03,8]pentadeca-1(11),3(8),4,6,12,14-hexaen-2-ylidene)-1-piperidyl]butyl]naphthalene-2-carboxamide

> <PUBCHEM_IUPAC_CAS_NAME>
N-[4-[4-(13-chloro-4-azatricyclo[9.4.0.03,8]pentadeca-1(11),3(8),4,6,12,14-hexaen-2-ylidene)-1-piperidinyl]butyl]-2-naphthalenecarboxamide

> <PUBCHEM_IUPAC_NAME_MARKUP>
<I>N</I>-[4-[4-(13-chloro-4-azatricyclo[9.4.0.0<SUP>3,8</SUP>]pentadeca-1(11),3(8),4,6,12,14-hexaen-2-ylidene)piperidin-1-yl]butyl]naphthalene-2-carboxamide

> <PUBCHEM_IUPAC_NAME>
N-[4-[4-(13-chloro-4-azatricyclo[9.4.0.03,8]pentadeca-1(11),3(8),4,6,12,14-hexaen-2-ylidene)piperidin-1-yl]butyl]naphthalene-2-carboxamide

> <PUBCHEM_IUPAC_SYSTEMATIC_NAME>
N-[4-[4-(13-chloranyl-4-azatricyclo[9.4.0.03,8]pentadeca-1(11),3(8),4,6,12,14-hexaen-2-ylidene)piperidin-1-yl]butyl]naphthalene-2-carboxamide

> <PUBCHEM_IUPAC_TRADITIONAL_NAME>
N-[4-[4-(13-chloro-4-azatricyclo[9.4.0.03,8]pentadeca-1(11),3(8),4,6,12,14-hexaen-2-ylidene)piperidino]butyl]-2-naphthamide

> <PUBCHEM_IUPAC_INCHI>
InChI=1S/C34H34ClN3O/c35-30-13-14-31-28(23-30)11-10-26-8-5-18-36-33(26)32(31)25-15-20-38(21-16-25)19-4-3-17-37-34(39)29-12-9-24-6-1-2-7-27(24)22-29/h1-2,5-9,12-14,18,22-23H,3-4,10-11,15-17,19-21H2,(H,37,39)

> <PUBCHEM_IUPAC_INCHIKEY>
ZDDZCFWJYDZNBA-UHFFFAOYSA-N

> <PUBCHEM_XLOGP3>
7.2

> <PUBCHEM_EXACT_MASS>
535.2390404

> <PUBCHEM_MOLECULAR_FORMULA>
C34H34ClN3O

> <PUBCHEM_MOLECULAR_WEIGHT>
536.1

> <PUBCHEM_OPENEYE_CAN_SMILES>
C1CC2=C(C=CC(=C2)Cl)C(=C3CCN(CC3)CCCCNC(=O)C4=CC5=CC=CC=C5C=C4)C6=C1C=CC=N6

> <PUBCHEM_OPENEYE_ISO_SMILES>
C1CC2=C(C=CC(=C2)Cl)C(=C3CCN(CC3)CCCCNC(=O)C4=CC5=CC=CC=C5C=C4)C6=C1C=CC=N6

> <PUBCHEM_CACTVS_TPSA>
45.2

> <PUBCHEM_MONOISOTOPIC_WEIGHT>
535.2390404

> <PUBCHEM_TOTAL_CHARGE>
0

> <PUBCHEM_HEAVY_ATOM_COUNT>
39

> <PUBCHEM_ATOM_DEF_STEREO_COUNT>
0

> <PUBCHEM_ATOM_UDEF_STEREO_COUNT>
0

> <PUBCHEM_BOND_DEF_STEREO_COUNT>
0

> <PUBCHEM_BOND_UDEF_STEREO_COUNT>
0

> <PUBCHEM_ISOTOPIC_ATOM_COUNT>
0

> <PUBCHEM_COMPONENT_COUNT>
1

> <PUBCHEM_CACTVS_TAUTO_COUNT>
-1

> <PUBCHEM_COORDINATE_TYPE>
1
5
255

> <PUBCHEM_BONDANNOTATIONS>
14  16  8
14  21  8
15  18  8
16  23  8
18  24  8
21  25  8
23  26  8
24  27  8
25  26  8
27  28  8
30  31  8
30  32  8
31  33  8
32  35  8
33  34  8
33  36  8
34  35  8
34  37  8
36  38  8
37  39  8
38  39  8
4  15  8
4  28  8

$$$$
