9957068
  -OEChem-09292322152D

 65 68  0     1  0  0  0  0  0999 V2000
    2.8660    1.5490    0.0000 S   0  0  0  0  0  0  0  0  0  0  0  0
   19.3600   -1.5490    0.0000 F   0  0  0  0  0  0  0  0  0  0  0  0
   13.3600   -1.5490    0.0000 O   0  0  0  0  0  0  0  0  0  0  0  0
    3.7320    2.0490    0.0000 O   0  0  0  0  0  0  0  0  0  0  0  0
    2.3660    2.4151    0.0000 O   0  0  0  0  0  0  0  0  0  0  0  0
    3.3660    0.6830    0.0000 O   0  0  0  0  0  0  0  0  0  0  0  0
    7.8600    1.0490    0.0000 N   0  0  3  0  0  0  0  0  0  0  0  0
   13.3600    0.1830    0.0000 N   0  0  0  0  0  0  0  0  0  0  0  0
   10.3600    0.1830    0.0000 C   0  0  0  0  0  0  0  0  0  0  0  0
   10.8600    1.0490    0.0000 C   0  0  0  0  0  0  0  0  0  0  0  0
   10.8600   -0.6830    0.0000 C   0  0  0  0  0  0  0  0  0  0  0  0
   12.3600    0.1830    0.0000 C   0  0  0  0  0  0  0  0  0  0  0  0
   11.8600    1.0490    0.0000 C   0  0  0  0  0  0  0  0  0  0  0  0
   11.8600   -0.6830    0.0000 C   0  0  0  0  0  0  0  0  0  0  0  0
    9.3600    0.1830    0.0000 C   0  0  0  0  0  0  0  0  0  0  0  0
    8.8600    1.0490    0.0000 C   0  0  0  0  0  0  0  0  0  0  0  0
    7.2764    1.8538    0.0000 C   0  0  0  0  0  0  0  0  0  0  0  0
    7.2764    0.2443    0.0000 C   0  0  0  0  0  0  0  0  0  0  0  0
    6.3301    1.5490    0.0000 C   0  0  0  0  0  0  0  0  0  0  0  0
    6.3301    0.5490    0.0000 C   0  0  0  0  0  0  0  0  0  0  0  0
   13.8600   -0.6830    0.0000 C   0  0  0  0  0  0  0  0  0  0  0  0
    5.4641    2.0490    0.0000 C   0  0  0  0  0  0  0  0  0  0  0  0
    5.4641    0.0490    0.0000 C   0  0  0  0  0  0  0  0  0  0  0  0
    4.5981    1.5490    0.0000 C   0  0  0  0  0  0  0  0  0  0  0  0
    4.5981    0.5490    0.0000 C   0  0  0  0  0  0  0  0  0  0  0  0
   14.8600   -0.6830    0.0000 C   0  0  0  0  0  0  0  0  0  0  0  0
   15.3600   -1.5490    0.0000 C   0  0  0  0  0  0  0  0  0  0  0  0
   16.3600   -1.5490    0.0000 C   0  0  0  0  0  0  0  0  0  0  0  0
    2.0000    1.0490    0.0000 C   0  0  0  0  0  0  0  0  0  0  0  0
   16.8600   -2.4151    0.0000 C   0  0  0  0  0  0  0  0  0  0  0  0
   16.8600   -0.6830    0.0000 C   0  0  0  0  0  0  0  0  0  0  0  0
   17.8600   -2.4151    0.0000 C   0  0  0  0  0  0  0  0  0  0  0  0
   17.8600   -0.6830    0.0000 C   0  0  0  0  0  0  0  0  0  0  0  0
   18.3600   -1.5490    0.0000 C   0  0  0  0  0  0  0  0  0  0  0  0
   10.0500    0.7199    0.0000 H   0  0  0  0  0  0  0  0  0  0  0  0
   10.9676    1.6596    0.0000 H   0  0  0  0  0  0  0  0  0  0  0  0
   10.2773    1.2611    0.0000 H   0  0  0  0  0  0  0  0  0  0  0  0
   10.2773   -0.8951    0.0000 H   0  0  0  0  0  0  0  0  0  0  0  0
   10.9676   -1.2936    0.0000 H   0  0  0  0  0  0  0  0  0  0  0  0
   12.6700    0.7199    0.0000 H   0  0  0  0  0  0  0  0  0  0  0  0
   12.4426    1.2611    0.0000 H   0  0  0  0  0  0  0  0  0  0  0  0
   11.7523    1.6596    0.0000 H   0  0  0  0  0  0  0  0  0  0  0  0
   11.7523   -1.2936    0.0000 H   0  0  0  0  0  0  0  0  0  0  0  0
   12.4426   -0.8951    0.0000 H   0  0  0  0  0  0  0  0  0  0  0  0
    8.7774   -0.0290    0.0000 H   0  0  0  0  0  0  0  0  0  0  0  0
    9.4676   -0.4276    0.0000 H   0  0  0  0  0  0  0  0  0  0  0  0
    9.4426    1.2611    0.0000 H   0  0  0  0  0  0  0  0  0  0  0  0
    8.7523    1.6596    0.0000 H   0  0  0  0  0  0  0  0  0  0  0  0
   13.6700    0.7199    0.0000 H   0  0  0  0  0  0  0  0  0  0  0  0
    7.8137    2.1630    0.0000 H   0  0  0  0  0  0  0  0  0  0  0  0
    7.0253    2.4207    0.0000 H   0  0  0  0  0  0  0  0  0  0  0  0
    7.0253   -0.3226    0.0000 H   0  0  0  0  0  0  0  0  0  0  0  0
    7.8137   -0.0649    0.0000 H   0  0  0  0  0  0  0  0  0  0  0  0
    5.4641    2.6690    0.0000 H   0  0  0  0  0  0  0  0  0  0  0  0
    5.4641   -0.5710    0.0000 H   0  0  0  0  0  0  0  0  0  0  0  0
    4.0611    0.2390    0.0000 H   0  0  0  0  0  0  0  0  0  0  0  0
   15.1700   -0.1461    0.0000 H   0  0  0  0  0  0  0  0  0  0  0  0
   15.0500   -2.0860    0.0000 H   0  0  0  0  0  0  0  0  0  0  0  0
    1.6900    1.5860    0.0000 H   0  0  0  0  0  0  0  0  0  0  0  0
    1.4631    0.7390    0.0000 H   0  0  0  0  0  0  0  0  0  0  0  0
    2.3100    0.5121    0.0000 H   0  0  0  0  0  0  0  0  0  0  0  0
   16.5500   -2.9520    0.0000 H   0  0  0  0  0  0  0  0  0  0  0  0
   16.5500   -0.1461    0.0000 H   0  0  0  0  0  0  0  0  0  0  0  0
   18.1700   -2.9520    0.0000 H   0  0  0  0  0  0  0  0  0  0  0  0
   18.1700   -0.1461    0.0000 H   0  0  0  0  0  0  0  0  0  0  0  0
  1  4  1  0  0  0  0
  1  5  2  0  0  0  0
  1  6  2  0  0  0  0
  1 29  1  0  0  0  0
  2 34  1  0  0  0  0
  3 21  2  0  0  0  0
  4 24  1  0  0  0  0
  7 16  1  0  0  0  0
  7 17  1  0  0  0  0
  7 18  1  0  0  0  0
  8 12  1  0  0  0  0
  8 21  1  0  0  0  0
  8 49  1  0  0  0  0
  9 10  1  0  0  0  0
  9 11  1  0  0  0  0
  9 15  1  0  0  0  0
  9 35  1  0  0  0  0
 10 13  1  0  0  0  0
 10 36  1  0  0  0  0
 10 37  1  0  0  0  0
 11 14  1  0  0  0  0
 11 38  1  0  0  0  0
 11 39  1  0  0  0  0
 12 13  1  0  0  0  0
 12 14  1  0  0  0  0
 12 40  1  0  0  0  0
 13 41  1  0  0  0  0
 13 42  1  0  0  0  0
 14 43  1  0  0  0  0
 14 44  1  0  0  0  0
 15 16  1  0  0  0  0
 15 45  1  0  0  0  0
 15 46  1  0  0  0  0
 16 47  1  0  0  0  0
 16 48  1  0  0  0  0
 17 19  1  0  0  0  0
 17 50  1  0  0  0  0
 17 51  1  0  0  0  0
 18 20  1  0  0  0  0
 18 52  1  0  0  0  0
 18 53  1  0  0  0  0
 19 20  2  0  0  0  0
 19 22  1  0  0  0  0
 20 23  1  0  0  0  0
 21 26  1  0  0  0  0
 22 24  2  0  0  0  0
 22 54  1  0  0  0  0
 23 25  2  0  0  0  0
 23 55  1  0  0  0  0
 24 25  1  0  0  0  0
 25 56  1  0  0  0  0
 26 27  2  0  0  0  0
 26 57  1  0  0  0  0
 27 28  1  0  0  0  0
 27 58  1  0  0  0  0
 28 30  2  0  0  0  0
 28 31  1  0  0  0  0
 29 59  1  0  0  0  0
 29 60  1  0  0  0  0
 29 61  1  0  0  0  0
 30 32  1  0  0  0  0
 30 62  1  0  0  0  0
 31 33  2  0  0  0  0
 31 63  1  0  0  0  0
 32 34  2  0  0  0  0
 32 64  1  0  0  0  0
 33 34  1  0  0  0  0
 33 65  1  0  0  0  0
M  END
> <PUBCHEM_COMPOUND_CID>
9957068

> <PUBCHEM_COMPOUND_CANONICALIZED>
1

> <PUBCHEM_CACTVS_COMPLEXITY>
798

> <PUBCHEM_CACTVS_HBOND_ACCEPTOR>
6

> <PUBCHEM_CACTVS_HBOND_DONOR>
1

> <PUBCHEM_CACTVS_ROTATABLE_BOND>
8

> <PUBCHEM_CACTVS_SUBSKEYS>
AAADceB7OQBAAAAAAAAAAAAAAAAAAWAAAAAwYMAAAAAAAFgBQAAAHwQQAAAADSzBmAyyBoPAAAKIAiFSEHCCAAAgIAAIiIAODMgIJiKAkROEMAhk1hGIiYew0JIOoAABAAAQAABQAAIAACAAAAAAAAAAAA==

> <PUBCHEM_IUPAC_OPENEYE_NAME>
[2-[2-[4-[[(E)-3-(4-fluorophenyl)prop-2-enoyl]amino]cyclohexyl]ethyl]isoindolin-5-yl] methanesulfonate

> <PUBCHEM_IUPAC_CAS_NAME>
methanesulfonic acid [2-[2-[4-[[(E)-3-(4-fluorophenyl)-1-oxoprop-2-enyl]amino]cyclohexyl]ethyl]-1,3-dihydroisoindol-5-yl] ester

> <PUBCHEM_IUPAC_NAME_MARKUP>
[2-[2-[4-[[(<I>E</I>)-3-(4-fluorophenyl)prop-2-enoyl]amino]cyclohexyl]ethyl]-1,3-dihydroisoindol-5-yl] methanesulfonate

> <PUBCHEM_IUPAC_NAME>
[2-[2-[4-[[(E)-3-(4-fluorophenyl)prop-2-enoyl]amino]cyclohexyl]ethyl]-1,3-dihydroisoindol-5-yl] methanesulfonate

> <PUBCHEM_IUPAC_SYSTEMATIC_NAME>
[2-[2-[4-[[(E)-3-(4-fluorophenyl)prop-2-enoyl]amino]cyclohexyl]ethyl]-1,3-dihydroisoindol-5-yl] methanesulfonate

> <PUBCHEM_IUPAC_TRADITIONAL_NAME>
methanesulfonic acid [2-[2-[4-[[(E)-3-(4-fluorophenyl)acryloyl]amino]cyclohexyl]ethyl]isoindolin-5-yl] ester

> <PUBCHEM_IUPAC_INCHI>
InChI=1S/C26H31FN2O4S/c1-34(31,32)33-25-12-7-21-17-29(18-22(21)16-25)15-14-20-4-10-24(11-5-20)28-26(30)13-6-19-2-8-23(27)9-3-19/h2-3,6-9,12-13,16,20,24H,4-5,10-11,14-15,17-18H2,1H3,(H,28,30)/b13-6+

> <PUBCHEM_IUPAC_INCHIKEY>
WUACSCWYLJHDBV-AWNIVKPZSA-N

> <PUBCHEM_XLOGP3_AA>
4.3

> <PUBCHEM_EXACT_MASS>
486.19885681

> <PUBCHEM_MOLECULAR_FORMULA>
C26H31FN2O4S

> <PUBCHEM_MOLECULAR_WEIGHT>
486.6

> <PUBCHEM_OPENEYE_CAN_SMILES>
CS(=O)(=O)OC1=CC2=C(CN(C2)CCC3CCC(CC3)NC(=O)C=CC4=CC=C(C=C4)F)C=C1

> <PUBCHEM_OPENEYE_ISO_SMILES>
CS(=O)(=O)OC1=CC2=C(CN(C2)CCC3CCC(CC3)NC(=O)/C=C/C4=CC=C(C=C4)F)C=C1

> <PUBCHEM_CACTVS_TPSA>
84.1

> <PUBCHEM_MONOISOTOPIC_WEIGHT>
486.19885681

> <PUBCHEM_TOTAL_CHARGE>
0

> <PUBCHEM_HEAVY_ATOM_COUNT>
34

> <PUBCHEM_ATOM_DEF_STEREO_COUNT>
0

> <PUBCHEM_ATOM_UDEF_STEREO_COUNT>
0

> <PUBCHEM_BOND_DEF_STEREO_COUNT>
1

> <PUBCHEM_BOND_UDEF_STEREO_COUNT>
0

> <PUBCHEM_ISOTOPIC_ATOM_COUNT>
0

> <PUBCHEM_COMPONENT_COUNT>
1

> <PUBCHEM_CACTVS_TAUTO_COUNT>
-1

> <PUBCHEM_COORDINATE_TYPE>
1
5
255

> <PUBCHEM_BONDANNOTATIONS>
19  20  8
19  22  8
20  23  8
22  24  8
23  25  8
24  25  8
28  30  8
28  31  8
30  32  8
31  33  8
32  34  8
33  34  8

$$$$
