23625243
  -OEChem-09292322252D

 69 73  0     0  0  0  0  0  0999 V2000
   10.1279    2.9641    0.0000 O   0  0  0  0  0  0  0  0  0  0  0  0
   13.6279   -3.0981    0.0000 O   0  0  0  0  0  0  0  0  0  0  0  0
   13.6279    0.3660    0.0000 N   0  0  0  0  0  0  0  0  0  0  0  0
   14.6279   -1.3660    0.0000 N   0  0  0  0  0  0  0  0  0  0  0  0
    4.5981    3.4641    0.0000 N   0  0  0  0  0  0  0  0  0  0  0  0
    5.5443    2.1594    0.0000 N   0  0  0  0  0  0  0  0  0  0  0  0
   13.1279   -0.5000    0.0000 C   0  0  0  0  0  0  0  0  0  0  0  0
   14.6279    0.3660    0.0000 C   0  0  0  0  0  0  0  0  0  0  0  0
   13.6279   -1.3660    0.0000 C   0  0  0  0  0  0  0  0  0  0  0  0
   15.1279   -0.5000    0.0000 C   0  0  0  0  0  0  0  0  0  0  0  0
   13.1279    1.2320    0.0000 C   0  0  0  0  0  0  0  0  0  0  0  0
   12.1279    1.2320    0.0000 C   0  0  0  0  0  0  0  0  0  0  0  0
   15.1279   -2.2320    0.0000 C   0  0  0  0  0  0  0  0  0  0  0  0
   11.6279    2.0981    0.0000 C   0  0  0  0  0  0  0  0  0  0  0  0
   14.6279   -3.0981    0.0000 C   0  0  0  0  0  0  0  0  0  0  0  0
   10.6279    2.0981    0.0000 C   0  0  0  0  0  0  0  0  0  0  0  0
   16.1279   -2.2320    0.0000 C   0  0  0  0  0  0  0  0  0  0  0  0
   15.1279   -3.9641    0.0000 C   0  0  0  0  0  0  0  0  0  0  0  0
   16.6279   -3.0981    0.0000 C   0  0  0  0  0  0  0  0  0  0  0  0
   16.1279   -3.9641    0.0000 C   0  0  0  0  0  0  0  0  0  0  0  0
    9.1279    2.9641    0.0000 C   0  0  0  0  0  0  0  0  0  0  0  0
   13.1279   -3.9641    0.0000 C   0  0  0  0  0  0  0  0  0  0  0  0
    8.6279    3.8301    0.0000 C   0  0  0  0  0  0  0  0  0  0  0  0
    8.6279    2.0981    0.0000 C   0  0  0  0  0  0  0  0  0  0  0  0
    7.1279    2.9641    0.0000 C   0  0  0  0  0  0  0  0  0  0  0  0
    6.1279    2.9641    0.0000 C   0  0  0  0  0  0  0  0  0  0  0  0
    7.6279    3.8301    0.0000 C   0  0  0  0  0  0  0  0  0  0  0  0
    7.6279    2.0981    0.0000 C   0  0  0  0  0  0  0  0  0  0  0  0
    4.5981    2.4641    0.0000 C   0  0  0  0  0  0  0  0  0  0  0  0
    5.5443    3.7688    0.0000 C   0  0  0  0  0  0  0  0  0  0  0  0
    3.7320    3.9641    0.0000 C   0  0  0  0  0  0  0  0  0  0  0  0
    2.8660    3.4641    0.0000 C   0  0  0  0  0  0  0  0  0  0  0  0
    3.7320    1.9641    0.0000 C   0  0  0  0  0  0  0  0  0  0  0  0
    2.8660    2.4641    0.0000 C   0  0  0  0  0  0  0  0  0  0  0  0
    2.0000    3.9641    0.0000 C   0  0  0  0  0  0  0  0  0  0  0  0
   12.6530   -0.1015    0.0000 H   0  0  0  0  0  0  0  0  0  0  0  0
   12.6530   -0.8985    0.0000 H   0  0  0  0  0  0  0  0  0  0  0  0
   15.2105    0.5781    0.0000 H   0  0  0  0  0  0  0  0  0  0  0  0
   14.5202    0.9766    0.0000 H   0  0  0  0  0  0  0  0  0  0  0  0
   13.0453   -1.5781    0.0000 H   0  0  0  0  0  0  0  0  0  0  0  0
   13.7356   -1.9766    0.0000 H   0  0  0  0  0  0  0  0  0  0  0  0
   15.6029   -0.8985    0.0000 H   0  0  0  0  0  0  0  0  0  0  0  0
   15.6029   -0.1015    0.0000 H   0  0  0  0  0  0  0  0  0  0  0  0
   13.7105    1.4441    0.0000 H   0  0  0  0  0  0  0  0  0  0  0  0
   13.0202    1.8426    0.0000 H   0  0  0  0  0  0  0  0  0  0  0  0
   11.5453    1.0200    0.0000 H   0  0  0  0  0  0  0  0  0  0  0  0
   12.2356    0.6215    0.0000 H   0  0  0  0  0  0  0  0  0  0  0  0
   12.2105    2.3101    0.0000 H   0  0  0  0  0  0  0  0  0  0  0  0
   11.5202    2.7087    0.0000 H   0  0  0  0  0  0  0  0  0  0  0  0
   10.0453    1.8860    0.0000 H   0  0  0  0  0  0  0  0  0  0  0  0
   10.7356    1.4875    0.0000 H   0  0  0  0  0  0  0  0  0  0  0  0
   16.4379   -1.6951    0.0000 H   0  0  0  0  0  0  0  0  0  0  0  0
   14.8179   -4.5010    0.0000 H   0  0  0  0  0  0  0  0  0  0  0  0
   17.2479   -3.0981    0.0000 H   0  0  0  0  0  0  0  0  0  0  0  0
   16.4379   -4.5010    0.0000 H   0  0  0  0  0  0  0  0  0  0  0  0
   12.5910   -3.6541    0.0000 H   0  0  0  0  0  0  0  0  0  0  0  0
   12.8179   -4.5010    0.0000 H   0  0  0  0  0  0  0  0  0  0  0  0
   13.6648   -4.2741    0.0000 H   0  0  0  0  0  0  0  0  0  0  0  0
    8.9379    4.3671    0.0000 H   0  0  0  0  0  0  0  0  0  0  0  0
    8.9379    1.5611    0.0000 H   0  0  0  0  0  0  0  0  0  0  0  0
    7.3179    4.3671    0.0000 H   0  0  0  0  0  0  0  0  0  0  0  0
    7.3179    1.5611    0.0000 H   0  0  0  0  0  0  0  0  0  0  0  0
    5.7369    4.3582    0.0000 H   0  0  0  0  0  0  0  0  0  0  0  0
    3.7320    4.5841    0.0000 H   0  0  0  0  0  0  0  0  0  0  0  0
    3.7320    1.3441    0.0000 H   0  0  0  0  0  0  0  0  0  0  0  0
    2.3291    2.1541    0.0000 H   0  0  0  0  0  0  0  0  0  0  0  0
    2.3100    4.5010    0.0000 H   0  0  0  0  0  0  0  0  0  0  0  0
    1.4631    4.2741    0.0000 H   0  0  0  0  0  0  0  0  0  0  0  0
    1.6900    3.4272    0.0000 H   0  0  0  0  0  0  0  0  0  0  0  0
  1 16  1  0  0  0  0
  1 21  1  0  0  0  0
  2 15  1  0  0  0  0
  2 22  1  0  0  0  0
  3  7  1  0  0  0  0
  3  8  1  0  0  0  0
  3 11  1  0  0  0  0
  4  9  1  0  0  0  0
  4 10  1  0  0  0  0
  4 13  1  0  0  0  0
  5 29  1  0  0  0  0
  5 30  1  0  0  0  0
  5 31  1  0  0  0  0
  6 26  1  0  0  0  0
  6 29  2  0  0  0  0
  7  9  1  0  0  0  0
  7 36  1  0  0  0  0
  7 37  1  0  0  0  0
  8 10  1  0  0  0  0
  8 38  1  0  0  0  0
  8 39  1  0  0  0  0
  9 40  1  0  0  0  0
  9 41  1  0  0  0  0
 10 42  1  0  0  0  0
 10 43  1  0  0  0  0
 11 12  1  0  0  0  0
 11 44  1  0  0  0  0
 11 45  1  0  0  0  0
 12 14  1  0  0  0  0
 12 46  1  0  0  0  0
 12 47  1  0  0  0  0
 13 15  1  0  0  0  0
 13 17  2  0  0  0  0
 14 16  1  0  0  0  0
 14 48  1  0  0  0  0
 14 49  1  0  0  0  0
 15 18  2  0  0  0  0
 16 50  1  0  0  0  0
 16 51  1  0  0  0  0
 17 19  1  0  0  0  0
 17 52  1  0  0  0  0
 18 20  1  0  0  0  0
 18 53  1  0  0  0  0
 19 20  2  0  0  0  0
 19 54  1  0  0  0  0
 20 55  1  0  0  0  0
 21 23  2  0  0  0  0
 21 24  1  0  0  0  0
 22 56  1  0  0  0  0
 22 57  1  0  0  0  0
 22 58  1  0  0  0  0
 23 27  1  0  0  0  0
 23 59  1  0  0  0  0
 24 28  2  0  0  0  0
 24 60  1  0  0  0  0
 25 26  1  0  0  0  0
 25 27  2  0  0  0  0
 25 28  1  0  0  0  0
 26 30  2  0  0  0  0
 27 61  1  0  0  0  0
 28 62  1  0  0  0  0
 29 33  1  0  0  0  0
 30 63  1  0  0  0  0
 31 32  2  0  0  0  0
 31 64  1  0  0  0  0
 32 34  1  0  0  0  0
 32 35  1  0  0  0  0
 33 34  2  0  0  0  0
 33 65  1  0  0  0  0
 34 66  1  0  0  0  0
 35 67  1  0  0  0  0
 35 68  1  0  0  0  0
 35 69  1  0  0  0  0
M  END
> <PUBCHEM_COMPOUND_CID>
23625243

> <PUBCHEM_COMPOUND_CANONICALIZED>
1

> <PUBCHEM_CACTVS_COMPLEXITY>
620

> <PUBCHEM_CACTVS_HBOND_ACCEPTOR>
5

> <PUBCHEM_CACTVS_HBOND_DONOR>
0

> <PUBCHEM_CACTVS_ROTATABLE_BOND>
9

> <PUBCHEM_CACTVS_SUBSKEYS>
AAADcfB7sAAAAAAAAAAAAAAAAAAAAWAAAAA8eIEAAAAAAFgB9AAAHgAAAAAADAzhnwY/9p8MHACgAzZnZACCiC0xMqAJ2CA/fJiObuLEuZuXOCjswBPY6Cew0IMOIAAAAAAAEABAAAAAAAAgAAAAAAAAAA==

> <PUBCHEM_IUPAC_OPENEYE_NAME>
2-[4-[4-[4-(2-methoxyphenyl)piperazin-1-yl]butoxy]phenyl]-6-methyl-imidazo[1,2-a]pyridine

> <PUBCHEM_IUPAC_CAS_NAME>
2-[4-[4-[4-(2-methoxyphenyl)-1-piperazinyl]butoxy]phenyl]-6-methylimidazo[1,2-a]pyridine

> <PUBCHEM_IUPAC_NAME_MARKUP>
2-[4-[4-[4-(2-methoxyphenyl)piperazin-1-yl]butoxy]phenyl]-6-methylimidazo[1,2-a]pyridine

> <PUBCHEM_IUPAC_NAME>
2-[4-[4-[4-(2-methoxyphenyl)piperazin-1-yl]butoxy]phenyl]-6-methylimidazo[1,2-a]pyridine

> <PUBCHEM_IUPAC_SYSTEMATIC_NAME>
2-[4-[4-[4-(2-methoxyphenyl)piperazin-1-yl]butoxy]phenyl]-6-methyl-imidazo[1,2-a]pyridine

> <PUBCHEM_IUPAC_TRADITIONAL_NAME>
2-[4-[4-[4-(2-methoxyphenyl)piperazino]butoxy]phenyl]-6-methyl-imidazo[1,2-a]pyridine

> <PUBCHEM_IUPAC_INCHI>
InChI=1S/C29H34N4O2/c1-23-9-14-29-30-26(22-33(29)21-23)24-10-12-25(13-11-24)35-20-6-5-15-31-16-18-32(19-17-31)27-7-3-4-8-28(27)34-2/h3-4,7-14,21-22H,5-6,15-20H2,1-2H3

> <PUBCHEM_IUPAC_INCHIKEY>
BSWBATABCUZHGT-UHFFFAOYSA-N

> <PUBCHEM_XLOGP3_AA>
6.1

> <PUBCHEM_EXACT_MASS>
470.26817634

> <PUBCHEM_MOLECULAR_FORMULA>
C29H34N4O2

> <PUBCHEM_MOLECULAR_WEIGHT>
470.6

> <PUBCHEM_OPENEYE_CAN_SMILES>
CC1=CN2C=C(N=C2C=C1)C3=CC=C(C=C3)OCCCCN4CCN(CC4)C5=CC=CC=C5OC

> <PUBCHEM_OPENEYE_ISO_SMILES>
CC1=CN2C=C(N=C2C=C1)C3=CC=C(C=C3)OCCCCN4CCN(CC4)C5=CC=CC=C5OC

> <PUBCHEM_CACTVS_TPSA>
42.2

> <PUBCHEM_MONOISOTOPIC_WEIGHT>
470.26817634

> <PUBCHEM_TOTAL_CHARGE>
0

> <PUBCHEM_HEAVY_ATOM_COUNT>
35

> <PUBCHEM_ATOM_DEF_STEREO_COUNT>
0

> <PUBCHEM_ATOM_UDEF_STEREO_COUNT>
0

> <PUBCHEM_BOND_DEF_STEREO_COUNT>
0

> <PUBCHEM_BOND_UDEF_STEREO_COUNT>
0

> <PUBCHEM_ISOTOPIC_ATOM_COUNT>
0

> <PUBCHEM_COMPONENT_COUNT>
1

> <PUBCHEM_CACTVS_TAUTO_COUNT>
-1

> <PUBCHEM_COORDINATE_TYPE>
1
5
255

> <PUBCHEM_BONDANNOTATIONS>
13  15  8
13  17  8
15  18  8
17  19  8
18  20  8
19  20  8
21  23  8
21  24  8
23  27  8
24  28  8
25  27  8
25  28  8
26  30  8
29  33  8
31  32  8
32  34  8
33  34  8
5  29  8
5  30  8
5  31  8
6  26  8
6  29  8

$$$$
