45261707
  -OEChem-09292322132D

 50 52  0     0  0  0  0  0  0999 V2000
    8.6667    4.8428    0.0000 Cl  0  0  0  0  0  0  0  0  0  0  0  0
    0.5901    6.0000    0.0000 O   0  0  0  0  0  0  0  0  0  0  0  0
    5.7863    0.0000    0.0000 O   0  5  0  0  0  0  0  0  0  0  0  0
    6.6523    1.5000    0.0000 O   0  0  0  0  0  0  0  0  0  0  0  0
    2.3222    4.0000    0.0000 N   0  0  0  0  0  0  0  0  0  0  0  0
    5.7863    1.0000    0.0000 N   0  3  0  0  0  0  0  0  0  0  0  0
    2.3222    6.0000    0.0000 C   0  0  0  0  0  0  0  0  0  0  0  0
    3.1882    5.5000    0.0000 C   0  0  0  0  0  0  0  0  0  0  0  0
    1.4562    5.5000    0.0000 C   0  0  0  0  0  0  0  0  0  0  0  0
    3.1882    6.5000    0.0000 C   0  0  0  0  0  0  0  0  0  0  0  0
    3.1882    4.5000    0.0000 C   0  0  0  0  0  0  0  0  0  0  0  0
    1.4562    4.5000    0.0000 C   0  0  0  0  0  0  0  0  0  0  0  0
    1.4562    6.5000    0.0000 C   0  0  0  0  0  0  0  0  0  0  0  0
    3.1882    7.5000    0.0000 C   0  0  0  0  0  0  0  0  0  0  0  0
    1.4562    7.5000    0.0000 C   0  0  0  0  0  0  0  0  0  0  0  0
    2.3222    8.0000    0.0000 C   0  0  0  0  0  0  0  0  0  0  0  0
    2.3222    3.0000    0.0000 C   0  0  0  0  0  0  0  0  0  0  0  0
    0.5462    8.0068    0.0000 C   0  0  0  0  0  0  0  0  0  0  0  0
    2.3382    9.0415    0.0000 C   0  0  0  0  0  0  0  0  0  0  0  0
    3.1882    2.5000    0.0000 C   0  0  0  0  0  0  0  0  0  0  0  0
    0.5381    9.0484    0.0000 C   0  0  0  0  0  0  0  0  0  0  0  0
    1.4402    9.5693    0.0000 C   0  0  0  0  0  0  0  0  0  0  0  0
    3.1882    1.5000    0.0000 C   0  0  0  0  0  0  0  0  0  0  0  0
    4.0542    3.0000    0.0000 C   0  0  0  0  0  0  0  0  0  0  0  0
    4.0542    1.0000    0.0000 C   0  0  0  0  0  0  0  0  0  0  0  0
    4.9203    2.5000    0.0000 C   0  0  0  0  0  0  0  0  0  0  0  0
    4.9203    1.5000    0.0000 C   0  0  0  0  0  0  0  0  0  0  0  0
    3.7988    5.3923    0.0000 H   0  0  0  0  0  0  0  0  0  0  0  0
    3.4003    6.0826    0.0000 H   0  0  0  0  0  0  0  0  0  0  0  0
    1.2441    6.0826    0.0000 H   0  0  0  0  0  0  0  0  0  0  0  0
    0.8456    5.3923    0.0000 H   0  0  0  0  0  0  0  0  0  0  0  0
    3.4003    5.9174    0.0000 H   0  0  0  0  0  0  0  0  0  0  0  0
    3.7988    6.6077    0.0000 H   0  0  0  0  0  0  0  0  0  0  0  0
    3.4003    3.9174    0.0000 H   0  0  0  0  0  0  0  0  0  0  0  0
    3.7988    4.6077    0.0000 H   0  0  0  0  0  0  0  0  0  0  0  0
    0.8456    4.6077    0.0000 H   0  0  0  0  0  0  0  0  0  0  0  0
    1.2441    3.9174    0.0000 H   0  0  0  0  0  0  0  0  0  0  0  0
    3.7988    7.3923    0.0000 H   0  0  0  0  0  0  0  0  0  0  0  0
    3.4003    8.0826    0.0000 H   0  0  0  0  0  0  0  0  0  0  0  0
    1.7116    3.1077    0.0000 H   0  0  0  0  0  0  0  0  0  0  0  0
    2.1101    2.4174    0.0000 H   0  0  0  0  0  0  0  0  0  0  0  0
    0.0128    7.6907    0.0000 H   0  0  0  0  0  0  0  0  0  0  0  0
    2.8787    9.3453    0.0000 H   0  0  0  0  0  0  0  0  0  0  0  0
    0.0000    9.3564    0.0000 H   0  0  0  0  0  0  0  0  0  0  0  0
    1.4426   10.1893    0.0000 H   0  0  0  0  0  0  0  0  0  0  0  0
    2.6513    1.1900    0.0000 H   0  0  0  0  0  0  0  0  0  0  0  0
    4.0542    3.6200    0.0000 H   0  0  0  0  0  0  0  0  0  0  0  0
    4.0542    0.3800    0.0000 H   0  0  0  0  0  0  0  0  0  0  0  0
    5.4572    2.8100    0.0000 H   0  0  0  0  0  0  0  0  0  0  0  0
    9.6667    4.8428    0.0000 H   0  0  0  0  0  0  0  0  0  0  0  0
  1 50  1  0  0  0  0
  2 13  2  0  0  0  0
  3  6  1  0  0  0  0
  4  6  2  0  0  0  0
  5 11  1  0  0  0  0
  5 12  1  0  0  0  0
  5 17  1  0  0  0  0
  6 27  1  0  0  0  0
  7  8  1  0  0  0  0
  7  9  1  0  0  0  0
  7 10  1  0  0  0  0
  7 13  1  0  0  0  0
  8 11  1  0  0  0  0
  8 28  1  0  0  0  0
  8 29  1  0  0  0  0
  9 12  1  0  0  0  0
  9 30  1  0  0  0  0
  9 31  1  0  0  0  0
 10 14  1  0  0  0  0
 10 32  1  0  0  0  0
 10 33  1  0  0  0  0
 11 34  1  0  0  0  0
 11 35  1  0  0  0  0
 12 36  1  0  0  0  0
 12 37  1  0  0  0  0
 13 15  1  0  0  0  0
 14 16  1  0  0  0  0
 14 38  1  0  0  0  0
 14 39  1  0  0  0  0
 15 16  1  0  0  0  0
 15 18  2  0  0  0  0
 16 19  2  0  0  0  0
 17 20  1  0  0  0  0
 17 40  1  0  0  0  0
 17 41  1  0  0  0  0
 18 21  1  0  0  0  0
 18 42  1  0  0  0  0
 19 22  1  0  0  0  0
 19 43  1  0  0  0  0
 20 23  2  0  0  0  0
 20 24  1  0  0  0  0
 21 22  2  0  0  0  0
 21 44  1  0  0  0  0
 22 45  1  0  0  0  0
 23 25  1  0  0  0  0
 23 46  1  0  0  0  0
 24 26  2  0  0  0  0
 24 47  1  0  0  0  0
 25 27  2  0  0  0  0
 25 48  1  0  0  0  0
 26 27  1  0  0  0  0
 26 49  1  0  0  0  0
M  CHG  2   3  -1   6   1
M  END
> <PUBCHEM_COMPOUND_CID>
45261707

> <PUBCHEM_COMPOUND_CANONICALIZED>
1

> <PUBCHEM_CACTVS_COMPLEXITY>
528

> <PUBCHEM_CACTVS_HBOND_ACCEPTOR>
4

> <PUBCHEM_CACTVS_HBOND_DONOR>
1

> <PUBCHEM_CACTVS_ROTATABLE_BOND>
2

> <PUBCHEM_CACTVS_SUBSKEYS>
AAADceB7MAAEAAAAAAAAAAAAAAAAAAAAAAA8YMEAAAAAAADBQAAAHgAEAAAADgzBmAQwwIMQQACJAqRSQwCCAAAkAgAoiAEIZMoIIDKAlZGEIQhggACIyYcciMCPiAAAAAAQAACQAAQAACAAAAAAAAAAAA==

> <PUBCHEM_IUPAC_OPENEYE_NAME>
1-[(4-nitrophenyl)methyl]spiro[piperidine-4,2'-tetralin]-1'-one;hydrochloride

> <PUBCHEM_IUPAC_CAS_NAME>
1'-[(4-nitrophenyl)methyl]-1-spiro[3,4-dihydronaphthalene-2,4'-piperidine]one;hydrochloride

> <PUBCHEM_IUPAC_NAME_MARKUP>
1&apos;-[(4-nitrophenyl)methyl]spiro[3,4-dihydronaphthalene-2,4&apos;-piperidine]-1-one;hydrochloride

> <PUBCHEM_IUPAC_NAME>
1'-[(4-nitrophenyl)methyl]spiro[3,4-dihydronaphthalene-2,4'-piperidine]-1-one;hydrochloride

> <PUBCHEM_IUPAC_SYSTEMATIC_NAME>
1'-[(4-nitrophenyl)methyl]spiro[3,4-dihydronaphthalene-2,4'-piperidine]-1-one;hydrochloride

> <PUBCHEM_IUPAC_TRADITIONAL_NAME>
1-(4-nitrobenzyl)spiro[piperidine-4,2'-tetralin]-1'-one;hydrochloride

> <PUBCHEM_IUPAC_INCHI>
InChI=1S/C21H22N2O3.ClH/c24-20-19-4-2-1-3-17(19)9-10-21(20)11-13-22(14-12-21)15-16-5-7-18(8-6-16)23(25)26;/h1-8H,9-15H2;1H

> <PUBCHEM_IUPAC_INCHIKEY>
KZMJJEWOKSJHID-UHFFFAOYSA-N

> <PUBCHEM_EXACT_MASS>
386.1397203

> <PUBCHEM_MOLECULAR_FORMULA>
C21H23ClN2O3

> <PUBCHEM_MOLECULAR_WEIGHT>
386.9

> <PUBCHEM_OPENEYE_CAN_SMILES>
C1CC2(CCN(CC2)CC3=CC=C(C=C3)[N+](=O)[O-])C(=O)C4=CC=CC=C41.Cl

> <PUBCHEM_OPENEYE_ISO_SMILES>
C1CC2(CCN(CC2)CC3=CC=C(C=C3)[N+](=O)[O-])C(=O)C4=CC=CC=C41.Cl

> <PUBCHEM_CACTVS_TPSA>
66.1

> <PUBCHEM_MONOISOTOPIC_WEIGHT>
386.1397203

> <PUBCHEM_TOTAL_CHARGE>
0

> <PUBCHEM_HEAVY_ATOM_COUNT>
27

> <PUBCHEM_ATOM_DEF_STEREO_COUNT>
0

> <PUBCHEM_ATOM_UDEF_STEREO_COUNT>
0

> <PUBCHEM_BOND_DEF_STEREO_COUNT>
0

> <PUBCHEM_BOND_UDEF_STEREO_COUNT>
0

> <PUBCHEM_ISOTOPIC_ATOM_COUNT>
0

> <PUBCHEM_COMPONENT_COUNT>
2

> <PUBCHEM_CACTVS_TAUTO_COUNT>
-1

> <PUBCHEM_COORDINATE_TYPE>
1
5
255

> <PUBCHEM_BONDANNOTATIONS>
15  16  8
15  18  8
16  19  8
18  21  8
19  22  8
20  23  8
20  24  8
21  22  8
23  25  8
24  26  8
25  27  8
26  27  8

$$$$
