46888927
  -OEChem-09292322292D

 60 64  0     0  0  0  0  0  0999 V2000
    4.0041   -0.9397    0.0000 O   0  0  0  0  0  0  0  0  0  0  0  0
   12.0095   -1.4370    0.0000 O   0  0  0  0  0  0  0  0  0  0  0  0
    2.5191   -1.9145    0.0000 O   0  0  0  0  0  0  0  0  0  0  0  0
   17.2717   -1.4129    0.0000 O   0  0  0  0  0  0  0  0  0  0  0  0
    7.6775   -0.9537    0.0000 N   0  0  0  0  0  0  0  0  0  0  0  0
    5.9416    0.0396    0.0000 N   0  0  0  0  0  0  0  0  0  0  0  0
    2.6072   -0.1404    0.0000 N   0  0  0  0  0  0  0  0  0  0  0  0
   15.5396   -1.4129    0.0000 N   0  0  0  0  0  0  0  0  0  0  0  0
    6.8134   -1.4571    0.0000 C   0  0  0  0  0  0  0  0  0  0  0  0
    7.6736    0.0463    0.0000 C   0  0  0  0  0  0  0  0  0  0  0  0
    5.9454   -0.9604    0.0000 C   0  0  0  0  0  0  0  0  0  0  0  0
    6.8057    0.5429    0.0000 C   0  0  0  0  0  0  0  0  0  0  0  0
    8.5454   -1.4504    0.0000 C   0  0  0  0  0  0  0  0  0  0  0  0
    9.4095   -0.9471    0.0000 C   0  0  0  0  0  0  0  0  0  0  0  0
    5.0736    0.5362    0.0000 C   0  0  0  0  0  0  0  0  0  0  0  0
   10.2775   -1.4437    0.0000 C   0  0  0  0  0  0  0  0  0  0  0  0
    4.2096    0.0329    0.0000 C   0  0  0  0  0  0  0  0  0  0  0  0
    5.0698    1.5362    0.0000 C   0  0  0  0  0  0  0  0  0  0  0  0
   11.1416   -0.9404    0.0000 C   0  0  0  0  0  0  0  0  0  0  0  0
    3.3416    0.5296    0.0000 C   0  0  0  0  0  0  0  0  0  0  0  0
    4.2018    2.0329    0.0000 C   0  0  0  0  0  0  0  0  0  0  0  0
    3.3378    1.5296    0.0000 C   0  0  0  0  0  0  0  0  0  0  0  0
   14.6736    0.0871    0.0000 C   0  0  0  0  0  0  0  0  0  0  0  0
   15.5396    0.5871    0.0000 C   0  0  0  0  0  0  0  0  0  0  0  0
   14.6736   -0.9129    0.0000 C   0  0  0  0  0  0  0  0  0  0  0  0
   12.8736   -0.9337    0.0000 C   0  0  0  0  0  0  0  0  0  0  0  0
    3.0158   -1.0466    0.0000 C   0  0  0  0  0  0  0  0  0  0  0  0
   16.4057    0.0871    0.0000 C   0  0  0  0  0  0  0  0  0  0  0  0
   13.7797   -1.4475    0.0000 C   0  0  0  0  0  0  0  0  0  0  0  0
   13.7797    0.6218    0.0000 C   0  0  0  0  0  0  0  0  0  0  0  0
   12.8736    0.1079    0.0000 C   0  0  0  0  0  0  0  0  0  0  0  0
   16.4057   -0.9129    0.0000 C   0  0  0  0  0  0  0  0  0  0  0  0
    6.4167   -1.9336    0.0000 H   0  0  0  0  0  0  0  0  0  0  0  0
    7.2137   -1.9305    0.0000 H   0  0  0  0  0  0  0  0  0  0  0  0
    8.2846   -0.0590    0.0000 H   0  0  0  0  0  0  0  0  0  0  0  0
    7.8834    0.6297    0.0000 H   0  0  0  0  0  0  0  0  0  0  0  0
    5.3344   -0.8551    0.0000 H   0  0  0  0  0  0  0  0  0  0  0  0
    5.7356   -1.5438    0.0000 H   0  0  0  0  0  0  0  0  0  0  0  0
    7.2024    1.0194    0.0000 H   0  0  0  0  0  0  0  0  0  0  0  0
    6.4053    1.0163    0.0000 H   0  0  0  0  0  0  0  0  0  0  0  0
    8.1487   -1.9269    0.0000 H   0  0  0  0  0  0  0  0  0  0  0  0
    8.9458   -1.9238    0.0000 H   0  0  0  0  0  0  0  0  0  0  0  0
    9.8062   -0.4706    0.0000 H   0  0  0  0  0  0  0  0  0  0  0  0
    9.0092   -0.4737    0.0000 H   0  0  0  0  0  0  0  0  0  0  0  0
    9.8808   -1.9202    0.0000 H   0  0  0  0  0  0  0  0  0  0  0  0
   10.6778   -1.9171    0.0000 H   0  0  0  0  0  0  0  0  0  0  0  0
    5.6055    1.8483    0.0000 H   0  0  0  0  0  0  0  0  0  0  0  0
   11.5382   -0.4639    0.0000 H   0  0  0  0  0  0  0  0  0  0  0  0
   10.7412   -0.4670    0.0000 H   0  0  0  0  0  0  0  0  0  0  0  0
    4.1994    2.6529    0.0000 H   0  0  0  0  0  0  0  0  0  0  0  0
    2.7996    1.8375    0.0000 H   0  0  0  0  0  0  0  0  0  0  0  0
    2.0000   -0.0148    0.0000 H   0  0  0  0  0  0  0  0  0  0  0  0
   15.9382    1.0621    0.0000 H   0  0  0  0  0  0  0  0  0  0  0  0
   15.1411    1.0621    0.0000 H   0  0  0  0  0  0  0  0  0  0  0  0
   17.0162   -0.0206    0.0000 H   0  0  0  0  0  0  0  0  0  0  0  0
   16.6177    0.6697    0.0000 H   0  0  0  0  0  0  0  0  0  0  0  0
   13.7868   -2.0675    0.0000 H   0  0  0  0  0  0  0  0  0  0  0  0
   13.7868    1.2417    0.0000 H   0  0  0  0  0  0  0  0  0  0  0  0
   12.3379    0.4200    0.0000 H   0  0  0  0  0  0  0  0  0  0  0  0
   15.5396   -2.0329    0.0000 H   0  0  0  0  0  0  0  0  0  0  0  0
  1 17  1  0  0  0  0
  1 27  1  0  0  0  0
  2 19  1  0  0  0  0
  2 26  1  0  0  0  0
  3 27  2  0  0  0  0
  4 32  2  0  0  0  0
  5  9  1  0  0  0  0
  5 10  1  0  0  0  0
  5 13  1  0  0  0  0
  6 11  1  0  0  0  0
  6 12  1  0  0  0  0
  6 15  1  0  0  0  0
  7 20  1  0  0  0  0
  7 27  1  0  0  0  0
  7 52  1  0  0  0  0
  8 25  1  0  0  0  0
  8 32  1  0  0  0  0
  8 60  1  0  0  0  0
  9 11  1  0  0  0  0
  9 33  1  0  0  0  0
  9 34  1  0  0  0  0
 10 12  1  0  0  0  0
 10 35  1  0  0  0  0
 10 36  1  0  0  0  0
 11 37  1  0  0  0  0
 11 38  1  0  0  0  0
 12 39  1  0  0  0  0
 12 40  1  0  0  0  0
 13 14  1  0  0  0  0
 13 41  1  0  0  0  0
 13 42  1  0  0  0  0
 14 16  1  0  0  0  0
 14 43  1  0  0  0  0
 14 44  1  0  0  0  0
 15 17  1  0  0  0  0
 15 18  2  0  0  0  0
 16 19  1  0  0  0  0
 16 45  1  0  0  0  0
 16 46  1  0  0  0  0
 17 20  2  0  0  0  0
 18 21  1  0  0  0  0
 18 47  1  0  0  0  0
 19 48  1  0  0  0  0
 19 49  1  0  0  0  0
 20 22  1  0  0  0  0
 21 22  2  0  0  0  0
 21 50  1  0  0  0  0
 22 51  1  0  0  0  0
 23 24  1  0  0  0  0
 23 25  2  0  0  0  0
 23 30  1  0  0  0  0
 24 28  1  0  0  0  0
 24 53  1  0  0  0  0
 24 54  1  0  0  0  0
 25 29  1  0  0  0  0
 26 29  2  0  0  0  0
 26 31  1  0  0  0  0
 28 32  1  0  0  0  0
 28 55  1  0  0  0  0
 28 56  1  0  0  0  0
 29 57  1  0  0  0  0
 30 31  2  0  0  0  0
 30 58  1  0  0  0  0
 31 59  1  0  0  0  0
M  END
> <PUBCHEM_COMPOUND_CID>
46888927

> <PUBCHEM_COMPOUND_CANONICALIZED>
1

> <PUBCHEM_CACTVS_COMPLEXITY>
668

> <PUBCHEM_CACTVS_HBOND_ACCEPTOR>
6

> <PUBCHEM_CACTVS_HBOND_DONOR>
2

> <PUBCHEM_CACTVS_ROTATABLE_BOND>
7

> <PUBCHEM_CACTVS_SUBSKEYS>
AAADceB7uAAAAAAAAAAAAAAAAAAAAWAAAAA8eIEAAAAAAFixQAAAHgAQAAAADAzhmAYwzoPABACIAiVSWACCCAAhIgAIiAEPbIkOZjLE8dufOijm1BnY6Ae42aOeIAAAAgQCEABAAAAECAQgAAAAAAAAAA==

> <PUBCHEM_IUPAC_OPENEYE_NAME>
7-[4-[4-[(2-oxo-3,4-dihydro-1H-quinolin-7-yl)oxy]butyl]piperazin-1-yl]-3H-1,3-benzoxazol-2-one

> <PUBCHEM_IUPAC_CAS_NAME>
7-[4-[4-[(2-oxo-3,4-dihydro-1H-quinolin-7-yl)oxy]butyl]-1-piperazinyl]-3H-1,3-benzoxazol-2-one

> <PUBCHEM_IUPAC_NAME_MARKUP>
7-[4-[4-[(2-oxo-3,4-dihydro-1<I>H</I>-quinolin-7-yl)oxy]butyl]piperazin-1-yl]-3<I>H</I>-1,3-benzoxazol-2-one

> <PUBCHEM_IUPAC_NAME>
7-[4-[4-[(2-oxo-3,4-dihydro-1H-quinolin-7-yl)oxy]butyl]piperazin-1-yl]-3H-1,3-benzoxazol-2-one

> <PUBCHEM_IUPAC_SYSTEMATIC_NAME>
7-[4-[4-[(2-oxidanylidene-3,4-dihydro-1H-quinolin-7-yl)oxy]butyl]piperazin-1-yl]-3H-1,3-benzoxazol-2-one

> <PUBCHEM_IUPAC_TRADITIONAL_NAME>
7-[4-[4-[(2-keto-3,4-dihydro-1H-quinolin-7-yl)oxy]butyl]piperazino]-3H-1,3-benzoxazol-2-one

> <PUBCHEM_IUPAC_INCHI>
InChI=1S/C24H28N4O4/c29-22-9-7-17-6-8-18(16-20(17)25-22)31-15-2-1-10-27-11-13-28(14-12-27)21-5-3-4-19-23(21)32-24(30)26-19/h3-6,8,16H,1-2,7,9-15H2,(H,25,29)(H,26,30)

> <PUBCHEM_IUPAC_INCHIKEY>
AYFPLBIYHZLNPS-UHFFFAOYSA-N

> <PUBCHEM_XLOGP3_AA>
2.6

> <PUBCHEM_EXACT_MASS>
436.21105539

> <PUBCHEM_MOLECULAR_FORMULA>
C24H28N4O4

> <PUBCHEM_MOLECULAR_WEIGHT>
436.5

> <PUBCHEM_OPENEYE_CAN_SMILES>
C1CC(=O)NC2=C1C=CC(=C2)OCCCCN3CCN(CC3)C4=CC=CC5=C4OC(=O)N5

> <PUBCHEM_OPENEYE_ISO_SMILES>
C1CC(=O)NC2=C1C=CC(=C2)OCCCCN3CCN(CC3)C4=CC=CC5=C4OC(=O)N5

> <PUBCHEM_CACTVS_TPSA>
83.1

> <PUBCHEM_MONOISOTOPIC_WEIGHT>
436.21105539

> <PUBCHEM_TOTAL_CHARGE>
0

> <PUBCHEM_HEAVY_ATOM_COUNT>
32

> <PUBCHEM_ATOM_DEF_STEREO_COUNT>
0

> <PUBCHEM_ATOM_UDEF_STEREO_COUNT>
0

> <PUBCHEM_BOND_DEF_STEREO_COUNT>
0

> <PUBCHEM_BOND_UDEF_STEREO_COUNT>
0

> <PUBCHEM_ISOTOPIC_ATOM_COUNT>
0

> <PUBCHEM_COMPONENT_COUNT>
1

> <PUBCHEM_CACTVS_TAUTO_COUNT>
-1

> <PUBCHEM_COORDINATE_TYPE>
1
5
255

> <PUBCHEM_BONDANNOTATIONS>
1  17  8
1  27  8
15  17  8
15  18  8
17  20  8
18  21  8
20  22  8
21  22  8
23  25  8
23  30  8
25  29  8
26  29  8
26  31  8
30  31  8
7  20  8
7  27  8

$$$$
