41532205
  -OEChem-09292322242D

 46 49  0     0  0  0  0  0  0999 V2000
    2.0000   -1.8512    0.0000 F   0  0  0  0  0  0  0  0  0  0  0  0
    3.7320    1.1488    0.0000 N   0  0  0  0  0  0  0  0  0  0  0  0
    3.7320   -0.8512    0.0000 N   0  0  0  0  0  0  0  0  0  0  0  0
    6.1808    2.9852    0.0000 N   0  0  0  0  0  0  0  0  0  0  0  0
    5.6808    3.8512    0.0000 N   0  0  0  0  0  0  0  0  0  0  0  0
    4.5981    0.6488    0.0000 C   0  0  0  0  0  0  0  0  0  0  0  0
    2.8660    0.6488    0.0000 C   0  0  0  0  0  0  0  0  0  0  0  0
    4.5981   -0.3512    0.0000 C   0  0  0  0  0  0  0  0  0  0  0  0
    2.8660   -0.3512    0.0000 C   0  0  0  0  0  0  0  0  0  0  0  0
    3.7320    2.1488    0.0000 C   0  0  0  0  0  0  0  0  0  0  0  0
    3.7320   -1.8512    0.0000 C   0  0  0  0  0  0  0  0  0  0  0  0
    4.5981    2.6488    0.0000 C   0  0  0  0  0  0  0  0  0  0  0  0
    5.5116    2.2420    0.0000 C   0  0  0  0  0  0  0  0  0  0  0  0
    2.8660   -2.3512    0.0000 C   0  0  0  0  0  0  0  0  0  0  0  0
    4.5981   -2.3512    0.0000 C   0  0  0  0  0  0  0  0  0  0  0  0
    4.7026    3.6433    0.0000 C   0  0  0  0  0  0  0  0  0  0  0  0
    2.8660   -3.3512    0.0000 C   0  0  0  0  0  0  0  0  0  0  0  0
    4.5981   -3.3512    0.0000 C   0  0  0  0  0  0  0  0  0  0  0  0
    7.1753    2.8807    0.0000 C   0  0  0  0  0  0  0  0  0  0  0  0
    3.7320   -3.8512    0.0000 C   0  0  0  0  0  0  0  0  0  0  0  0
    7.5820    1.9671    0.0000 C   0  0  0  0  0  0  0  0  0  0  0  0
    7.7631    3.6897    0.0000 C   0  0  0  0  0  0  0  0  0  0  0  0
    8.5765    1.8626    0.0000 C   0  0  0  0  0  0  0  0  0  0  0  0
    8.7576    3.5852    0.0000 C   0  0  0  0  0  0  0  0  0  0  0  0
    9.1643    2.6716    0.0000 C   0  0  0  0  0  0  0  0  0  0  0  0
    5.2087    0.5411    0.0000 H   0  0  0  0  0  0  0  0  0  0  0  0
    4.8101    1.2314    0.0000 H   0  0  0  0  0  0  0  0  0  0  0  0
    2.6540    1.2314    0.0000 H   0  0  0  0  0  0  0  0  0  0  0  0
    2.2554    0.5411    0.0000 H   0  0  0  0  0  0  0  0  0  0  0  0
    4.8101   -0.9338    0.0000 H   0  0  0  0  0  0  0  0  0  0  0  0
    5.2087   -0.2436    0.0000 H   0  0  0  0  0  0  0  0  0  0  0  0
    2.2554   -0.2436    0.0000 H   0  0  0  0  0  0  0  0  0  0  0  0
    2.6540   -0.9338    0.0000 H   0  0  0  0  0  0  0  0  0  0  0  0
    3.5200    2.7314    0.0000 H   0  0  0  0  0  0  0  0  0  0  0  0
    3.1215    2.0411    0.0000 H   0  0  0  0  0  0  0  0  0  0  0  0
    5.6405    1.6356    0.0000 H   0  0  0  0  0  0  0  0  0  0  0  0
    5.1350   -2.0412    0.0000 H   0  0  0  0  0  0  0  0  0  0  0  0
    4.2419    4.0582    0.0000 H   0  0  0  0  0  0  0  0  0  0  0  0
    2.3291   -3.6612    0.0000 H   0  0  0  0  0  0  0  0  0  0  0  0
    5.1350   -3.6612    0.0000 H   0  0  0  0  0  0  0  0  0  0  0  0
    3.7320   -4.4712    0.0000 H   0  0  0  0  0  0  0  0  0  0  0  0
    7.2176    1.4655    0.0000 H   0  0  0  0  0  0  0  0  0  0  0  0
    7.5109    4.2561    0.0000 H   0  0  0  0  0  0  0  0  0  0  0  0
    8.8287    1.2962    0.0000 H   0  0  0  0  0  0  0  0  0  0  0  0
    9.1220    4.0867    0.0000 H   0  0  0  0  0  0  0  0  0  0  0  0
    9.7809    2.6068    0.0000 H   0  0  0  0  0  0  0  0  0  0  0  0
  1 14  1  0  0  0  0
  2  6  1  0  0  0  0
  2  7  1  0  0  0  0
  2 10  1  0  0  0  0
  3  8  1  0  0  0  0
  3  9  1  0  0  0  0
  3 11  1  0  0  0  0
  4  5  1  0  0  0  0
  4 13  1  0  0  0  0
  4 19  1  0  0  0  0
  5 16  2  0  0  0  0
  6  8  1  0  0  0  0
  6 26  1  0  0  0  0
  6 27  1  0  0  0  0
  7  9  1  0  0  0  0
  7 28  1  0  0  0  0
  7 29  1  0  0  0  0
  8 30  1  0  0  0  0
  8 31  1  0  0  0  0
  9 32  1  0  0  0  0
  9 33  1  0  0  0  0
 10 12  1  0  0  0  0
 10 34  1  0  0  0  0
 10 35  1  0  0  0  0
 11 14  1  0  0  0  0
 11 15  2  0  0  0  0
 12 13  2  0  0  0  0
 12 16  1  0  0  0  0
 13 36  1  0  0  0  0
 14 17  2  0  0  0  0
 15 18  1  0  0  0  0
 15 37  1  0  0  0  0
 16 38  1  0  0  0  0
 17 20  1  0  0  0  0
 17 39  1  0  0  0  0
 18 20  2  0  0  0  0
 18 40  1  0  0  0  0
 19 21  2  0  0  0  0
 19 22  1  0  0  0  0
 20 41  1  0  0  0  0
 21 23  1  0  0  0  0
 21 42  1  0  0  0  0
 22 24  2  0  0  0  0
 22 43  1  0  0  0  0
 23 25  2  0  0  0  0
 23 44  1  0  0  0  0
 24 25  1  0  0  0  0
 24 45  1  0  0  0  0
 25 46  1  0  0  0  0
M  END
> <PUBCHEM_COMPOUND_CID>
41532205

> <PUBCHEM_COMPOUND_CANONICALIZED>
1

> <PUBCHEM_CACTVS_COMPLEXITY>
407

> <PUBCHEM_CACTVS_HBOND_ACCEPTOR>
4

> <PUBCHEM_CACTVS_HBOND_DONOR>
0

> <PUBCHEM_CACTVS_ROTATABLE_BOND>
4

> <PUBCHEM_CACTVS_SUBSKEYS>
AAADceB7gQAAAAAAAAAAAAAAAAAAAWAAAAA8YIAAAAAAAAAB0AAAHQAIAAAADAjBGgw8wJMIAACiAjRnRACSBCAxggAYmCAoZJgIYOLA0dGUpAhgiADIyAcQAAAAAAAAAAAAAAAAAAAAAAAAAAAAAAAAAA==

> <PUBCHEM_IUPAC_OPENEYE_NAME>
1-(2-fluorophenyl)-4-[(1-phenylpyrazol-4-yl)methyl]piperazine

> <PUBCHEM_IUPAC_CAS_NAME>
1-(2-fluorophenyl)-4-[(1-phenyl-4-pyrazolyl)methyl]piperazine

> <PUBCHEM_IUPAC_NAME_MARKUP>
1-(2-fluorophenyl)-4-[(1-phenylpyrazol-4-yl)methyl]piperazine

> <PUBCHEM_IUPAC_NAME>
1-(2-fluorophenyl)-4-[(1-phenylpyrazol-4-yl)methyl]piperazine

> <PUBCHEM_IUPAC_SYSTEMATIC_NAME>
1-(2-fluorophenyl)-4-[(1-phenylpyrazol-4-yl)methyl]piperazine

> <PUBCHEM_IUPAC_TRADITIONAL_NAME>
1-(2-fluorophenyl)-4-[(1-phenylpyrazol-4-yl)methyl]piperazine

> <PUBCHEM_IUPAC_INCHI>
InChI=1S/C20H21FN4/c21-19-8-4-5-9-20(19)24-12-10-23(11-13-24)15-17-14-22-25(16-17)18-6-2-1-3-7-18/h1-9,14,16H,10-13,15H2

> <PUBCHEM_IUPAC_INCHIKEY>
UTUCAVNEOKJWJU-UHFFFAOYSA-N

> <PUBCHEM_XLOGP3_AA>
3.4

> <PUBCHEM_EXACT_MASS>
336.17502485

> <PUBCHEM_MOLECULAR_FORMULA>
C20H21FN4

> <PUBCHEM_MOLECULAR_WEIGHT>
336.4

> <PUBCHEM_OPENEYE_CAN_SMILES>
C1CN(CCN1CC2=CN(N=C2)C3=CC=CC=C3)C4=CC=CC=C4F

> <PUBCHEM_OPENEYE_ISO_SMILES>
C1CN(CCN1CC2=CN(N=C2)C3=CC=CC=C3)C4=CC=CC=C4F

> <PUBCHEM_CACTVS_TPSA>
24.3

> <PUBCHEM_MONOISOTOPIC_WEIGHT>
336.17502485

> <PUBCHEM_TOTAL_CHARGE>
0

> <PUBCHEM_HEAVY_ATOM_COUNT>
25

> <PUBCHEM_ATOM_DEF_STEREO_COUNT>
0

> <PUBCHEM_ATOM_UDEF_STEREO_COUNT>
0

> <PUBCHEM_BOND_DEF_STEREO_COUNT>
0

> <PUBCHEM_BOND_UDEF_STEREO_COUNT>
0

> <PUBCHEM_ISOTOPIC_ATOM_COUNT>
0

> <PUBCHEM_COMPONENT_COUNT>
1

> <PUBCHEM_CACTVS_TAUTO_COUNT>
-1

> <PUBCHEM_COORDINATE_TYPE>
1
5
255

> <PUBCHEM_BONDANNOTATIONS>
11  14  8
11  15  8
12  13  8
12  16  8
14  17  8
15  18  8
17  20  8
18  20  8
19  21  8
19  22  8
21  23  8
22  24  8
23  25  8
24  25  8
4  13  8
4  5  8
5  16  8

$$$$
