44365166
  -OEChem-09292322152D

 55 57  0     1  0  0  0  0  0999 V2000
    6.3301   -4.4791    0.0000 S   0  0  0  0  0  0  0  0  0  0  0  0
    3.7320   -0.9791    0.0000 O   0  0  0  0  0  0  0  0  0  0  0  0
    2.8660   -2.4791    0.0000 O   0  0  0  0  0  0  0  0  0  0  0  0
    6.4347    1.5154    0.0000 N   0  0  3  0  0  0  0  0  0  0  0  0
    5.4641   -0.9791    0.0000 N   0  0  0  0  0  0  0  0  0  0  0  0
    6.3301    0.5209    0.0000 C   0  0  1  0  0  0  0  0  0  0  0  0
    7.2437    0.1142    0.0000 C   0  0  0  0  0  0  0  0  0  0  0  0
    7.4128    1.7233    0.0000 C   0  0  0  0  0  0  0  0  0  0  0  0
    7.9128    0.8573    0.0000 C   0  0  0  0  0  0  0  0  0  0  0  0
    5.4641    0.0209    0.0000 C   0  0  0  0  0  0  0  0  0  0  0  0
    5.6915    2.1846    0.0000 C   0  0  0  0  0  0  0  0  0  0  0  0
    5.8994    3.1627    0.0000 C   0  0  0  0  0  0  0  0  0  0  0  0
    5.1563    3.8318    0.0000 C   0  0  0  0  0  0  0  0  0  0  0  0
    4.5981   -1.4791    0.0000 C   0  0  0  0  0  0  0  0  0  0  0  0
    4.2052    3.5228    0.0000 C   0  0  0  0  0  0  0  0  0  0  0  0
    5.3642    4.8100    0.0000 C   0  0  0  0  0  0  0  0  0  0  0  0
    4.5981   -2.4791    0.0000 C   0  0  0  0  0  0  0  0  0  0  0  0
    3.4621    4.1919    0.0000 C   0  0  0  0  0  0  0  0  0  0  0  0
    4.6210    5.4791    0.0000 C   0  0  0  0  0  0  0  0  0  0  0  0
    3.7320   -2.9791    0.0000 C   0  0  0  0  0  0  0  0  0  0  0  0
    3.6700    5.1701    0.0000 C   0  0  0  0  0  0  0  0  0  0  0  0
    5.4641   -2.9791    0.0000 C   0  0  0  0  0  0  0  0  0  0  0  0
    5.4641   -3.9791    0.0000 C   0  0  0  0  0  0  0  0  0  0  0  0
    3.7320   -3.9791    0.0000 C   0  0  0  0  0  0  0  0  0  0  0  0
    4.5981   -4.4791    0.0000 C   0  0  0  0  0  0  0  0  0  0  0  0
    2.0000   -2.9791    0.0000 C   0  0  0  0  0  0  0  0  0  0  0  0
    6.3301   -5.4791    0.0000 C   0  0  0  0  0  0  0  0  0  0  0  0
    5.8102    0.8586    0.0000 H   0  0  0  0  0  0  0  0  0  0  0  0
    6.9337   -0.4228    0.0000 H   0  0  0  0  0  0  0  0  0  0  0  0
    7.7453   -0.2503    0.0000 H   0  0  0  0  0  0  0  0  0  0  0  0
    7.9792    1.9755    0.0000 H   0  0  0  0  0  0  0  0  0  0  0  0
    7.2212    2.3130    0.0000 H   0  0  0  0  0  0  0  0  0  0  0  0
    8.3277    0.3966    0.0000 H   0  0  0  0  0  0  0  0  0  0  0  0
    8.4144    1.2217    0.0000 H   0  0  0  0  0  0  0  0  0  0  0  0
    5.2520    0.6035    0.0000 H   0  0  0  0  0  0  0  0  0  0  0  0
    4.8535   -0.0868    0.0000 H   0  0  0  0  0  0  0  0  0  0  0  0
    5.1167    2.4168    0.0000 H   0  0  0  0  0  0  0  0  0  0  0  0
    5.3630    1.6588    0.0000 H   0  0  0  0  0  0  0  0  0  0  0  0
    6.4743    2.9304    0.0000 H   0  0  0  0  0  0  0  0  0  0  0  0
    6.2280    3.6885    0.0000 H   0  0  0  0  0  0  0  0  0  0  0  0
    6.0010   -1.2891    0.0000 H   0  0  0  0  0  0  0  0  0  0  0  0
    4.0763    2.9164    0.0000 H   0  0  0  0  0  0  0  0  0  0  0  0
    5.9538    5.0016    0.0000 H   0  0  0  0  0  0  0  0  0  0  0  0
    2.8724    4.0004    0.0000 H   0  0  0  0  0  0  0  0  0  0  0  0
    4.7500    6.0856    0.0000 H   0  0  0  0  0  0  0  0  0  0  0  0
    3.2092    5.5850    0.0000 H   0  0  0  0  0  0  0  0  0  0  0  0
    6.0010   -2.6691    0.0000 H   0  0  0  0  0  0  0  0  0  0  0  0
    3.1951   -4.2891    0.0000 H   0  0  0  0  0  0  0  0  0  0  0  0
    4.5981   -5.0991    0.0000 H   0  0  0  0  0  0  0  0  0  0  0  0
    1.6900   -2.4422    0.0000 H   0  0  0  0  0  0  0  0  0  0  0  0
    1.4631   -3.2891    0.0000 H   0  0  0  0  0  0  0  0  0  0  0  0
    2.3100   -3.5160    0.0000 H   0  0  0  0  0  0  0  0  0  0  0  0
    5.7101   -5.4791    0.0000 H   0  0  0  0  0  0  0  0  0  0  0  0
    6.3301   -6.0991    0.0000 H   0  0  0  0  0  0  0  0  0  0  0  0
    6.9501   -5.4791    0.0000 H   0  0  0  0  0  0  0  0  0  0  0  0
  1 23  1  0  0  0  0
  1 27  1  0  0  0  0
  2 14  2  0  0  0  0
  3 20  1  0  0  0  0
  3 26  1  0  0  0  0
  4  6  1  0  0  0  0
  4  8  1  0  0  0  0
  4 11  1  0  0  0  0
  5 10  1  0  0  0  0
  5 14  1  0  0  0  0
  5 41  1  0  0  0  0
  6  7  1  0  0  0  0
  6 10  1  1  0  0  0
  6 28  1  0  0  0  0
  7  9  1  0  0  0  0
  7 29  1  0  0  0  0
  7 30  1  0  0  0  0
  8  9  1  0  0  0  0
  8 31  1  0  0  0  0
  8 32  1  0  0  0  0
  9 33  1  0  0  0  0
  9 34  1  0  0  0  0
 10 35  1  0  0  0  0
 10 36  1  0  0  0  0
 11 12  1  0  0  0  0
 11 37  1  0  0  0  0
 11 38  1  0  0  0  0
 12 13  1  0  0  0  0
 12 39  1  0  0  0  0
 12 40  1  0  0  0  0
 13 15  2  0  0  0  0
 13 16  1  0  0  0  0
 14 17  1  0  0  0  0
 15 18  1  0  0  0  0
 15 42  1  0  0  0  0
 16 19  2  0  0  0  0
 16 43  1  0  0  0  0
 17 20  2  0  0  0  0
 17 22  1  0  0  0  0
 18 21  2  0  0  0  0
 18 44  1  0  0  0  0
 19 21  1  0  0  0  0
 19 45  1  0  0  0  0
 20 24  1  0  0  0  0
 21 46  1  0  0  0  0
 22 23  2  0  0  0  0
 22 47  1  0  0  0  0
 23 25  1  0  0  0  0
 24 25  2  0  0  0  0
 24 48  1  0  0  0  0
 25 49  1  0  0  0  0
 26 50  1  0  0  0  0
 26 51  1  0  0  0  0
 26 52  1  0  0  0  0
 27 53  1  0  0  0  0
 27 54  1  0  0  0  0
 27 55  1  0  0  0  0
M  END
> <PUBCHEM_COMPOUND_CID>
44365166

> <PUBCHEM_COMPOUND_CANONICALIZED>
1

> <PUBCHEM_CACTVS_COMPLEXITY>
456

> <PUBCHEM_CACTVS_HBOND_ACCEPTOR>
4

> <PUBCHEM_CACTVS_HBOND_DONOR>
1

> <PUBCHEM_CACTVS_ROTATABLE_BOND>
8

> <PUBCHEM_CACTVS_SUBSKEYS>
AAADceB7MABAAAAAAAAAAAAAAAAAAWAAAAAwYAAAAAAAAAABQAAAHgQQAAAADCzB2AayB4PABAiIAiFSEACCCAAkKBAIiJkODMgMZjaktRuUMWhm9hGIqYeYyKCOAIAAgAAIAAABAAEAABAAAAAAAAAAAA==

> <PUBCHEM_IUPAC_OPENEYE_NAME>
2-methoxy-5-methylsulfanyl-N-[[(2S)-1-(2-phenylethyl)pyrrolidin-2-yl]methyl]benzamide

> <PUBCHEM_IUPAC_CAS_NAME>
2-methoxy-5-(methylthio)-N-[[(2S)-1-(2-phenylethyl)-2-pyrrolidinyl]methyl]benzamide

> <PUBCHEM_IUPAC_NAME_MARKUP>
2-methoxy-5-methylsulfanyl-<I>N</I>-[[(2<I>S</I>)-1-(2-phenylethyl)pyrrolidin-2-yl]methyl]benzamide

> <PUBCHEM_IUPAC_NAME>
2-methoxy-5-methylsulfanyl-N-[[(2S)-1-(2-phenylethyl)pyrrolidin-2-yl]methyl]benzamide

> <PUBCHEM_IUPAC_SYSTEMATIC_NAME>
2-methoxy-5-methylsulfanyl-N-[[(2S)-1-(2-phenylethyl)pyrrolidin-2-yl]methyl]benzamide

> <PUBCHEM_IUPAC_TRADITIONAL_NAME>
2-methoxy-5-(methylthio)-N-[[(2S)-1-phenethylpyrrolidin-2-yl]methyl]benzamide

> <PUBCHEM_IUPAC_INCHI>
InChI=1S/C22H28N2O2S/c1-26-21-11-10-19(27-2)15-20(21)22(25)23-16-18-9-6-13-24(18)14-12-17-7-4-3-5-8-17/h3-5,7-8,10-11,15,18H,6,9,12-14,16H2,1-2H3,(H,23,25)/t18-/m0/s1

> <PUBCHEM_IUPAC_INCHIKEY>
WFLPEXKCKZHVKQ-SFHVURJKSA-N

> <PUBCHEM_XLOGP3>
4.1

> <PUBCHEM_EXACT_MASS>
384.18714931

> <PUBCHEM_MOLECULAR_FORMULA>
C22H28N2O2S

> <PUBCHEM_MOLECULAR_WEIGHT>
384.5

> <PUBCHEM_OPENEYE_CAN_SMILES>
COC1=C(C=C(C=C1)SC)C(=O)NCC2CCCN2CCC3=CC=CC=C3

> <PUBCHEM_OPENEYE_ISO_SMILES>
COC1=C(C=C(C=C1)SC)C(=O)NC[C@@H]2CCCN2CCC3=CC=CC=C3

> <PUBCHEM_CACTVS_TPSA>
66.9

> <PUBCHEM_MONOISOTOPIC_WEIGHT>
384.18714931

> <PUBCHEM_TOTAL_CHARGE>
0

> <PUBCHEM_HEAVY_ATOM_COUNT>
27

> <PUBCHEM_ATOM_DEF_STEREO_COUNT>
1

> <PUBCHEM_ATOM_UDEF_STEREO_COUNT>
0

> <PUBCHEM_BOND_DEF_STEREO_COUNT>
0

> <PUBCHEM_BOND_UDEF_STEREO_COUNT>
0

> <PUBCHEM_ISOTOPIC_ATOM_COUNT>
0

> <PUBCHEM_COMPONENT_COUNT>
1

> <PUBCHEM_CACTVS_TAUTO_COUNT>
-1

> <PUBCHEM_COORDINATE_TYPE>
1
5
255

> <PUBCHEM_BONDANNOTATIONS>
13  15  8
13  16  8
15  18  8
16  19  8
17  20  8
17  22  8
18  21  8
19  21  8
20  24  8
22  23  8
23  25  8
24  25  8
6  10  5

$$$$
