137652517
  -OEChem-09292322002D

 81 84  0     1  0  0  0  0  0999 V2000
    4.8714   -5.0350    0.0000 O   0  0  0  0  0  0  0  0  0  0  0  0
    2.3872    3.6582    0.0000 O   0  0  0  0  0  0  0  0  0  0  0  0
    4.6660   -6.7806    0.0000 N   0  0  0  0  0  0  0  0  0  0  0  0
    3.3073   -5.8368    0.0000 N   0  0  0  0  0  0  0  0  0  0  0  0
    6.3981   -8.7806    0.0000 N   0  0  0  0  0  0  0  0  0  0  0  0
    5.5321   -8.2806    0.0000 C   0  0  1  0  0  0  0  0  0  0  0  0
    3.8000   -7.2806    0.0000 C   0  0  0  0  0  0  0  0  0  0  0  0
    5.5321   -7.2806    0.0000 C   0  0  0  0  0  0  0  0  0  0  0  0
    4.6660   -8.7806    0.0000 C   0  0  0  0  0  0  0  0  0  0  0  0
    3.8000   -8.2806    0.0000 C   0  0  0  0  0  0  0  0  0  0  0  0
    2.9061   -6.7460    0.0000 C   0  0  0  0  0  0  0  0  0  0  0  0
    4.3009   -5.8563    0.0000 C   0  0  0  0  0  0  0  0  0  0  0  0
    2.7696   -4.9936    0.0000 C   0  0  0  0  0  0  0  0  0  0  0  0
    3.2308   -4.1064    0.0000 C   0  0  0  0  0  0  0  0  0  0  0  0
    2.9061   -8.8153    0.0000 C   0  0  0  0  0  0  0  0  0  0  0  0
    2.0000   -7.2598    0.0000 C   0  0  0  0  0  0  0  0  0  0  0  0
    2.6931   -3.2633    0.0000 C   0  0  0  0  0  0  0  0  0  0  0  0
    2.0000   -8.3015    0.0000 C   0  0  0  0  0  0  0  0  0  0  0  0
    3.1544   -2.3760    0.0000 C   0  0  0  0  0  0  0  0  0  0  0  0
    2.6166   -1.5329    0.0000 C   0  0  0  0  0  0  0  0  0  0  0  0
    6.3981   -9.7806    0.0000 C   0  0  0  0  0  0  0  0  0  0  0  0
    3.0779   -0.6457    0.0000 C   0  0  0  0  0  0  0  0  0  0  0  0
    2.5401    0.1974    0.0000 C   0  0  0  0  0  0  0  0  0  0  0  0
    3.0014    1.0847    0.0000 C   0  0  0  0  0  0  0  0  0  0  0  0
    2.4637    1.9278    0.0000 C   0  0  0  0  0  0  0  0  0  0  0  0
    2.9250    2.8150    0.0000 C   0  0  0  0  0  0  0  0  0  0  0  0
    2.8485    4.5454    0.0000 C   0  0  0  0  0  0  0  0  0  0  0  0
    2.3107    5.3885    0.0000 C   0  0  0  0  0  0  0  0  0  0  0  0
    2.7720    6.2758    0.0000 C   0  0  0  0  0  0  0  0  0  0  0  0
    2.2343    7.1189    0.0000 C   0  0  0  0  0  0  0  0  0  0  0  0
    2.6956    8.0061    0.0000 C   0  0  0  0  0  0  0  0  0  0  0  0
    2.1578    8.8492    0.0000 C   0  0  0  0  0  0  0  0  0  0  0  0
    3.6946    8.0503    0.0000 C   0  0  0  0  0  0  0  0  0  0  0  0
    2.6191    9.7365    0.0000 C   0  0  0  0  0  0  0  0  0  0  0  0
    4.1559    8.9375    0.0000 C   0  0  0  0  0  0  0  0  0  0  0  0
    3.6181    9.7806    0.0000 C   0  0  0  0  0  0  0  0  0  0  0  0
    5.5321   -8.9006    0.0000 H   0  0  0  0  0  0  0  0  0  0  0  0
    6.1426   -7.3883    0.0000 H   0  0  0  0  0  0  0  0  0  0  0  0
    5.7441   -6.6980    0.0000 H   0  0  0  0  0  0  0  0  0  0  0  0
    4.2675   -9.2556    0.0000 H   0  0  0  0  0  0  0  0  0  0  0  0
    5.0646   -9.2556    0.0000 H   0  0  0  0  0  0  0  0  0  0  0  0
    2.2775   -4.6165    0.0000 H   0  0  0  0  0  0  0  0  0  0  0  0
    2.3127   -5.4128    0.0000 H   0  0  0  0  0  0  0  0  0  0  0  0
    3.7229   -4.4836    0.0000 H   0  0  0  0  0  0  0  0  0  0  0  0
    3.6877   -3.6873    0.0000 H   0  0  0  0  0  0  0  0  0  0  0  0
    6.9350   -8.4706    0.0000 H   0  0  0  0  0  0  0  0  0  0  0  0
    2.9132   -9.4353    0.0000 H   0  0  0  0  0  0  0  0  0  0  0  0
    1.4643   -6.9478    0.0000 H   0  0  0  0  0  0  0  0  0  0  0  0
    2.2010   -2.8861    0.0000 H   0  0  0  0  0  0  0  0  0  0  0  0
    2.2362   -3.6824    0.0000 H   0  0  0  0  0  0  0  0  0  0  0  0
    1.4643   -8.6135    0.0000 H   0  0  0  0  0  0  0  0  0  0  0  0
    3.6464   -2.7532    0.0000 H   0  0  0  0  0  0  0  0  0  0  0  0
    3.6112   -1.9569    0.0000 H   0  0  0  0  0  0  0  0  0  0  0  0
    2.1245   -1.1558    0.0000 H   0  0  0  0  0  0  0  0  0  0  0  0
    2.1597   -1.9520    0.0000 H   0  0  0  0  0  0  0  0  0  0  0  0
    3.5700   -1.0228    0.0000 H   0  0  0  0  0  0  0  0  0  0  0  0
    3.5348   -0.2266    0.0000 H   0  0  0  0  0  0  0  0  0  0  0  0
    5.7781   -9.7806    0.0000 H   0  0  0  0  0  0  0  0  0  0  0  0
    6.3981  -10.4006    0.0000 H   0  0  0  0  0  0  0  0  0  0  0  0
    7.0181   -9.7806    0.0000 H   0  0  0  0  0  0  0  0  0  0  0  0
    2.0481    0.5746    0.0000 H   0  0  0  0  0  0  0  0  0  0  0  0
    2.0832   -0.2217    0.0000 H   0  0  0  0  0  0  0  0  0  0  0  0
    3.4935    0.7075    0.0000 H   0  0  0  0  0  0  0  0  0  0  0  0
    3.4583    1.5038    0.0000 H   0  0  0  0  0  0  0  0  0  0  0  0
    1.9716    2.3050    0.0000 H   0  0  0  0  0  0  0  0  0  0  0  0
    2.0068    1.5087    0.0000 H   0  0  0  0  0  0  0  0  0  0  0  0
    3.4170    2.4379    0.0000 H   0  0  0  0  0  0  0  0  0  0  0  0
    3.3818    3.2342    0.0000 H   0  0  0  0  0  0  0  0  0  0  0  0
    3.3406    4.1682    0.0000 H   0  0  0  0  0  0  0  0  0  0  0  0
    3.3054    4.9645    0.0000 H   0  0  0  0  0  0  0  0  0  0  0  0
    1.8187    5.7657    0.0000 H   0  0  0  0  0  0  0  0  0  0  0  0
    1.8538    4.9694    0.0000 H   0  0  0  0  0  0  0  0  0  0  0  0
    3.2641    5.8986    0.0000 H   0  0  0  0  0  0  0  0  0  0  0  0
    3.2289    6.6949    0.0000 H   0  0  0  0  0  0  0  0  0  0  0  0
    1.7422    7.4960    0.0000 H   0  0  0  0  0  0  0  0  0  0  0  0
    1.7774    6.6998    0.0000 H   0  0  0  0  0  0  0  0  0  0  0  0
    1.5384    8.8219    0.0000 H   0  0  0  0  0  0  0  0  0  0  0  0
    4.0280    7.5276    0.0000 H   0  0  0  0  0  0  0  0  0  0  0  0
    2.2857   10.2592    0.0000 H   0  0  0  0  0  0  0  0  0  0  0  0
    4.7752    8.9649    0.0000 H   0  0  0  0  0  0  0  0  0  0  0  0
    3.9041   10.3307    0.0000 H   0  0  0  0  0  0  0  0  0  0  0  0
  1 12  2  0  0  0  0
  2 26  1  0  0  0  0
  2 27  1  0  0  0  0
  3  7  1  0  0  0  0
  3  8  1  0  0  0  0
  3 12  1  0  0  0  0
  4 11  1  0  0  0  0
  4 12  1  0  0  0  0
  4 13  1  0  0  0  0
  6  5  1  6  0  0  0
  5 21  1  0  0  0  0
  5 46  1  0  0  0  0
  6  8  1  0  0  0  0
  6  9  1  0  0  0  0
  6 37  1  0  0  0  0
  7 10  2  0  0  0  0
  7 11  1  0  0  0  0
  8 38  1  0  0  0  0
  8 39  1  0  0  0  0
  9 10  1  0  0  0  0
  9 40  1  0  0  0  0
  9 41  1  0  0  0  0
 10 15  1  0  0  0  0
 11 16  2  0  0  0  0
 13 14  1  0  0  0  0
 13 42  1  0  0  0  0
 13 43  1  0  0  0  0
 14 17  1  0  0  0  0
 14 44  1  0  0  0  0
 14 45  1  0  0  0  0
 15 18  2  0  0  0  0
 15 47  1  0  0  0  0
 16 18  1  0  0  0  0
 16 48  1  0  0  0  0
 17 19  1  0  0  0  0
 17 49  1  0  0  0  0
 17 50  1  0  0  0  0
 18 51  1  0  0  0  0
 19 20  1  0  0  0  0
 19 52  1  0  0  0  0
 19 53  1  0  0  0  0
 20 22  1  0  0  0  0
 20 54  1  0  0  0  0
 20 55  1  0  0  0  0
 21 58  1  0  0  0  0
 21 59  1  0  0  0  0
 21 60  1  0  0  0  0
 22 23  1  0  0  0  0
 22 56  1  0  0  0  0
 22 57  1  0  0  0  0
 23 24  1  0  0  0  0
 23 61  1  0  0  0  0
 23 62  1  0  0  0  0
 24 25  1  0  0  0  0
 24 63  1  0  0  0  0
 24 64  1  0  0  0  0
 25 26  1  0  0  0  0
 25 65  1  0  0  0  0
 25 66  1  0  0  0  0
 26 67  1  0  0  0  0
 26 68  1  0  0  0  0
 27 28  1  0  0  0  0
 27 69  1  0  0  0  0
 27 70  1  0  0  0  0
 28 29  1  0  0  0  0
 28 71  1  0  0  0  0
 28 72  1  0  0  0  0
 29 30  1  0  0  0  0
 29 73  1  0  0  0  0
 29 74  1  0  0  0  0
 30 31  1  0  0  0  0
 30 75  1  0  0  0  0
 30 76  1  0  0  0  0
 31 32  2  0  0  0  0
 31 33  1  0  0  0  0
 32 34  1  0  0  0  0
 32 77  1  0  0  0  0
 33 35  2  0  0  0  0
 33 78  1  0  0  0  0
 34 36  2  0  0  0  0
 34 79  1  0  0  0  0
 35 36  1  0  0  0  0
 35 80  1  0  0  0  0
 36 81  1  0  0  0  0
M  END
> <PUBCHEM_COMPOUND_CID>
137652517

> <PUBCHEM_COMPOUND_CANONICALIZED>
1

> <PUBCHEM_CACTVS_COMPLEXITY>
623

> <PUBCHEM_CACTVS_HBOND_ACCEPTOR>
3

> <PUBCHEM_CACTVS_HBOND_DONOR>
1

> <PUBCHEM_CACTVS_ROTATABLE_BOND>
17

> <PUBCHEM_CACTVS_SUBSKEYS>
AAADcfB7MAAAAAAAAAAAAAAAAAAAAWAAAAA8YIAAAAAAAFixQAAAHgAQAAAADCjhmAYzwIPABACIAiRCUACCAAAhAgAIiIAIdIiIYCLAkZGWIAhslgLIyCeQwLAOAAAAQAACACAAAACAAAQAQAAAAAAAAA==

> <PUBCHEM_IUPAC_OPENEYE_NAME>
(10R)-10-(methylamino)-3-[10-(4-phenylbutoxy)decyl]-1,3-diazatricyclo[6.3.1.04,12]dodeca-4,6,8(12)-trien-2-one

> <PUBCHEM_IUPAC_CAS_NAME>
(10R)-10-(methylamino)-3-[10-(4-phenylbutoxy)decyl]-1,3-diazatricyclo[6.3.1.04,12]dodeca-4,6,8(12)-trien-2-one

> <PUBCHEM_IUPAC_NAME_MARKUP>
(10<I>R</I>)-10-(methylamino)-3-[10-(4-phenylbutoxy)decyl]-1,3-diazatricyclo[6.3.1.0<SUP>4,12</SUP>]dodeca-4,6,8(12)-trien-2-one

> <PUBCHEM_IUPAC_NAME>
(10R)-10-(methylamino)-3-[10-(4-phenylbutoxy)decyl]-1,3-diazatricyclo[6.3.1.04,12]dodeca-4,6,8(12)-trien-2-one

> <PUBCHEM_IUPAC_SYSTEMATIC_NAME>
(10R)-10-(methylamino)-3-[10-(4-phenylbutoxy)decyl]-1,3-diazatricyclo[6.3.1.04,12]dodeca-4,6,8(12)-trien-2-one

> <PUBCHEM_IUPAC_TRADITIONAL_NAME>
(10R)-10-(methylamino)-3-[10-(4-phenylbutoxy)decyl]-1,3-diazatricyclo[6.3.1.04,12]dodeca-4,6,8(12)-trien-2-one

> <PUBCHEM_IUPAC_INCHI>
InChI=1S/C31H45N3O2/c1-32-28-24-27-19-15-20-29-30(27)34(25-28)31(35)33(29)21-12-6-4-2-3-5-7-13-22-36-23-14-11-18-26-16-9-8-10-17-26/h8-10,15-17,19-20,28,32H,2-7,11-14,18,21-25H2,1H3/t28-/m1/s1

> <PUBCHEM_IUPAC_INCHIKEY>
HEHAZZLOEUQBDS-MUUNZHRXSA-N

> <PUBCHEM_XLOGP3_AA>
6.7

> <PUBCHEM_EXACT_MASS>
491.35117769

> <PUBCHEM_MOLECULAR_FORMULA>
C31H45N3O2

> <PUBCHEM_MOLECULAR_WEIGHT>
491.7

> <PUBCHEM_OPENEYE_CAN_SMILES>
CNC1CC2=C3C(=CC=C2)N(C(=O)N3C1)CCCCCCCCCCOCCCCC4=CC=CC=C4

> <PUBCHEM_OPENEYE_ISO_SMILES>
CN[C@@H]1CC2=C3C(=CC=C2)N(C(=O)N3C1)CCCCCCCCCCOCCCCC4=CC=CC=C4

> <PUBCHEM_CACTVS_TPSA>
44.8

> <PUBCHEM_MONOISOTOPIC_WEIGHT>
491.35117769

> <PUBCHEM_TOTAL_CHARGE>
0

> <PUBCHEM_HEAVY_ATOM_COUNT>
36

> <PUBCHEM_ATOM_DEF_STEREO_COUNT>
1

> <PUBCHEM_ATOM_UDEF_STEREO_COUNT>
0

> <PUBCHEM_BOND_DEF_STEREO_COUNT>
0

> <PUBCHEM_BOND_UDEF_STEREO_COUNT>
0

> <PUBCHEM_ISOTOPIC_ATOM_COUNT>
0

> <PUBCHEM_COMPONENT_COUNT>
1

> <PUBCHEM_CACTVS_TAUTO_COUNT>
-1

> <PUBCHEM_COORDINATE_TYPE>
1
5
255

> <PUBCHEM_BONDANNOTATIONS>
10  15  8
11  16  8
15  18  8
16  18  8
3  12  8
3  7  8
31  32  8
31  33  8
32  34  8
33  35  8
34  36  8
35  36  8
4  11  8
4  12  8
6  5  6
7  10  8
7  11  8

$$$$
