24766199
  -OEChem-09292322292D

 40 43  0     1  0  0  0  0  0999 V2000
    5.5442    2.5314    0.0000 O   0  0  0  0  0  0  0  0  0  0  0  0
    2.9176    0.9968    0.0000 O   0  0  0  0  0  0  0  0  0  0  0  0
    6.3903   -2.0348    0.0000 N   0  0  3  0  0  0  0  0  0  0  0  0
    5.5321   -1.5378    0.0000 C   0  0  1  0  0  0  0  0  0  0  0  0
    5.5321   -0.5378    0.0000 C   0  0  0  0  0  0  0  0  0  0  0  0
    4.6660   -2.0378    0.0000 C   0  0  0  0  0  0  0  0  0  0  0  0
    6.4421   -0.0310    0.0000 C   0  0  0  0  0  0  0  0  0  0  0  0
    7.2558   -1.5506    0.0000 C   0  0  0  0  0  0  0  0  0  0  0  0
    7.2814   -0.5592    0.0000 C   0  0  0  0  0  0  0  0  0  0  0  0
    4.6660   -0.0378    0.0000 C   0  0  0  0  0  0  0  0  0  0  0  0
    3.8000   -1.5378    0.0000 C   0  0  0  0  0  0  0  0  0  0  0  0
    3.8000   -0.5378    0.0000 C   0  0  0  0  0  0  0  0  0  0  0  0
    6.4501    1.0106    0.0000 C   0  0  0  0  0  0  0  0  0  0  0  0
    6.3829   -3.0348    0.0000 C   0  0  0  0  0  0  0  0  0  0  0  0
    4.6500    1.0037    0.0000 C   0  0  0  0  0  0  0  0  0  0  0  0
    5.5480    1.5314    0.0000 C   0  0  0  0  0  0  0  0  0  0  0  0
    2.9061   -2.0725    0.0000 C   0  0  0  0  0  0  0  0  0  0  0  0
    2.9061   -0.0032    0.0000 C   0  0  0  0  0  0  0  0  0  0  0  0
    2.0000   -1.5587    0.0000 C   0  0  0  0  0  0  0  0  0  0  0  0
    2.0000   -0.5170    0.0000 C   0  0  0  0  0  0  0  0  0  0  0  0
    6.4082    3.0348    0.0000 C   0  0  0  0  0  0  0  0  0  0  0  0
    5.5315   -2.3878    0.0000 H   0  0  0  0  0  0  0  0  0  0  0  0
    4.2675   -2.5128    0.0000 H   0  0  0  0  0  0  0  0  0  0  0  0
    5.0646   -2.5128    0.0000 H   0  0  0  0  0  0  0  0  0  0  0  0
    7.4575   -2.1369    0.0000 H   0  0  0  0  0  0  0  0  0  0  0  0
    7.8685   -1.4562    0.0000 H   0  0  0  0  0  0  0  0  0  0  0  0
    7.8885   -0.6851    0.0000 H   0  0  0  0  0  0  0  0  0  0  0  0
    7.5131    0.0158    0.0000 H   0  0  0  0  0  0  0  0  0  0  0  0
    6.9882    1.3185    0.0000 H   0  0  0  0  0  0  0  0  0  0  0  0
    5.7629   -3.0302    0.0000 H   0  0  0  0  0  0  0  0  0  0  0  0
    6.3783   -3.6547    0.0000 H   0  0  0  0  0  0  0  0  0  0  0  0
    7.0029   -3.0393    0.0000 H   0  0  0  0  0  0  0  0  0  0  0  0
    4.1095    1.3074    0.0000 H   0  0  0  0  0  0  0  0  0  0  0  0
    2.9132   -2.6925    0.0000 H   0  0  0  0  0  0  0  0  0  0  0  0
    1.4643   -1.8707    0.0000 H   0  0  0  0  0  0  0  0  0  0  0  0
    1.4643   -0.2050    0.0000 H   0  0  0  0  0  0  0  0  0  0  0  0
    2.3843    1.3129    0.0000 H   0  0  0  0  0  0  0  0  0  0  0  0
    6.7203    2.4990    0.0000 H   0  0  0  0  0  0  0  0  0  0  0  0
    6.9440    3.3468    0.0000 H   0  0  0  0  0  0  0  0  0  0  0  0
    6.0962    3.5705    0.0000 H   0  0  0  0  0  0  0  0  0  0  0  0
  1 16  1  0  0  0  0
  1 21  1  0  0  0  0
  2 18  1  0  0  0  0
  2 37  1  0  0  0  0
  3  4  1  0  0  0  0
  3  8  1  0  0  0  0
  3 14  1  0  0  0  0
  4  5  1  0  0  0  0
  4  6  1  0  0  0  0
  4 22  1  1  0  0  0
  5  7  2  0  0  0  0
  5 10  1  0  0  0  0
  6 11  1  0  0  0  0
  6 23  1  0  0  0  0
  6 24  1  0  0  0  0
  7  9  1  0  0  0  0
  7 13  1  0  0  0  0
  8  9  1  0  0  0  0
  8 25  1  0  0  0  0
  8 26  1  0  0  0  0
  9 27  1  0  0  0  0
  9 28  1  0  0  0  0
 10 12  1  0  0  0  0
 10 15  2  0  0  0  0
 11 12  2  0  0  0  0
 11 17  1  0  0  0  0
 12 18  1  0  0  0  0
 13 16  2  0  0  0  0
 13 29  1  0  0  0  0
 14 30  1  0  0  0  0
 14 31  1  0  0  0  0
 14 32  1  0  0  0  0
 15 16  1  0  0  0  0
 15 33  1  0  0  0  0
 17 19  2  0  0  0  0
 17 34  1  0  0  0  0
 18 20  2  0  0  0  0
 19 20  1  0  0  0  0
 19 35  1  0  0  0  0
 20 36  1  0  0  0  0
 21 38  1  0  0  0  0
 21 39  1  0  0  0  0
 21 40  1  0  0  0  0
M  END
> <PUBCHEM_COMPOUND_CID>
24766199

> <PUBCHEM_COMPOUND_CANONICALIZED>
1

> <PUBCHEM_CACTVS_COMPLEXITY>
387

> <PUBCHEM_CACTVS_HBOND_ACCEPTOR>
3

> <PUBCHEM_CACTVS_HBOND_DONOR>
1

> <PUBCHEM_CACTVS_ROTATABLE_BOND>
1

> <PUBCHEM_CACTVS_SUBSKEYS>
AAADceB6MAAAAAAAAAAAAAAAAAAAAAAAAAA8YMEAAAAAAADxQAAAHgAACAAADCzBmAYyBoMABgCAAiBCAACCCAAgIAAIiAAODIgMJiKGsRuEcChkwBGIuAeQ8P8OoAADAAAYAADQAAaAADQAAAAAAAAAAA==

> <PUBCHEM_IUPAC_OPENEYE_NAME>
(6aR)-2-methoxy-6-methyl-5,6,6a,7-tetrahydro-4H-dibenzo[de,g]quinolin-11-ol

> <PUBCHEM_IUPAC_CAS_NAME>
(6aR)-2-methoxy-6-methyl-5,6,6a,7-tetrahydro-4H-dibenzo[de,g]quinolin-11-ol

> <PUBCHEM_IUPAC_NAME_MARKUP>
(6<I>a</I><I>R</I>)-2-methoxy-6-methyl-5,6,6<I>a</I>,7-tetrahydro-4<I>H</I>-dibenzo[de,g]quinolin-11-ol

> <PUBCHEM_IUPAC_NAME>
(6aR)-2-methoxy-6-methyl-5,6,6a,7-tetrahydro-4H-dibenzo[de,g]quinolin-11-ol

> <PUBCHEM_IUPAC_SYSTEMATIC_NAME>
(6aR)-2-methoxy-6-methyl-5,6,6a,7-tetrahydro-4H-dibenzo[de,g]quinolin-11-ol

> <PUBCHEM_IUPAC_TRADITIONAL_NAME>
(6aR)-2-methoxy-6-methyl-5,6,6a,7-tetrahydro-4H-dibenzo[de,g]quinolin-11-ol

> <PUBCHEM_IUPAC_INCHI>
InChI=1S/C18H19NO2/c1-19-7-6-12-8-13(21-2)10-14-17(12)15(19)9-11-4-3-5-16(20)18(11)14/h3-5,8,10,15,20H,6-7,9H2,1-2H3/t15-/m1/s1

> <PUBCHEM_IUPAC_INCHIKEY>
UGNGRDRWDHJJJI-OAHLLOKOSA-N

> <PUBCHEM_XLOGP3>
2.6

> <PUBCHEM_EXACT_MASS>
281.141578849

> <PUBCHEM_MOLECULAR_FORMULA>
C18H19NO2

> <PUBCHEM_MOLECULAR_WEIGHT>
281.3

> <PUBCHEM_OPENEYE_CAN_SMILES>
CN1CCC2=C3C1CC4=C(C3=CC(=C2)OC)C(=CC=C4)O

> <PUBCHEM_OPENEYE_ISO_SMILES>
CN1CCC2=C3[C@H]1CC4=C(C3=CC(=C2)OC)C(=CC=C4)O

> <PUBCHEM_CACTVS_TPSA>
32.7

> <PUBCHEM_MONOISOTOPIC_WEIGHT>
281.141578849

> <PUBCHEM_TOTAL_CHARGE>
0

> <PUBCHEM_HEAVY_ATOM_COUNT>
21

> <PUBCHEM_ATOM_DEF_STEREO_COUNT>
1

> <PUBCHEM_ATOM_UDEF_STEREO_COUNT>
0

> <PUBCHEM_BOND_DEF_STEREO_COUNT>
0

> <PUBCHEM_BOND_UDEF_STEREO_COUNT>
0

> <PUBCHEM_ISOTOPIC_ATOM_COUNT>
0

> <PUBCHEM_COMPONENT_COUNT>
1

> <PUBCHEM_CACTVS_TAUTO_COUNT>
-1

> <PUBCHEM_COORDINATE_TYPE>
1
5
255

> <PUBCHEM_BONDANNOTATIONS>
10  15  8
11  12  8
11  17  8
12  18  8
13  16  8
15  16  8
17  19  8
18  20  8
19  20  8
4  22  5
5  10  8
5  7  8
7  13  8

$$$$
