71574306
  -OEChem-09292322332D

 58 61  0     0  0  0  0  0  0999 V2000
   13.3263   -1.5600    0.0000 Cl  0  0  0  0  0  0  0  0  0  0  0  0
   15.0583   -2.5600    0.0000 Cl  0  0  0  0  0  0  0  0  0  0  0  0
    6.3981    1.4400    0.0000 S   0  0  0  0  0  0  0  0  0  0  0  0
    6.8981    0.5740    0.0000 O   0  0  0  0  0  0  0  0  0  0  0  0
    5.8981    2.3060    0.0000 O   0  0  0  0  0  0  0  0  0  0  0  0
   11.5942    1.4400    0.0000 N   0  0  0  0  0  0  0  0  0  0  0  0
   13.3263    0.4400    0.0000 N   0  0  0  0  0  0  0  0  0  0  0  0
    7.2641    1.9400    0.0000 N   0  0  0  0  0  0  0  0  0  0  0  0
    5.5321   -0.0600    0.0000 N   0  0  0  0  0  0  0  0  0  0  0  0
   11.5942    0.4400    0.0000 C   0  0  0  0  0  0  0  0  0  0  0  0
   12.4603    1.9400    0.0000 C   0  0  0  0  0  0  0  0  0  0  0  0
   12.4603   -0.0600    0.0000 C   0  0  0  0  0  0  0  0  0  0  0  0
   13.3263    1.4400    0.0000 C   0  0  0  0  0  0  0  0  0  0  0  0
   10.7282    1.9400    0.0000 C   0  0  0  0  0  0  0  0  0  0  0  0
    9.8622    1.4400    0.0000 C   0  0  0  0  0  0  0  0  0  0  0  0
    8.9962    1.9400    0.0000 C   0  0  0  0  0  0  0  0  0  0  0  0
   14.1923   -0.0600    0.0000 C   0  0  0  0  0  0  0  0  0  0  0  0
    8.1301    1.4400    0.0000 C   0  0  0  0  0  0  0  0  0  0  0  0
   14.1923   -1.0600    0.0000 C   0  0  0  0  0  0  0  0  0  0  0  0
   15.0583    0.4400    0.0000 C   0  0  0  0  0  0  0  0  0  0  0  0
   15.0583   -1.5600    0.0000 C   0  0  0  0  0  0  0  0  0  0  0  0
   15.9244   -0.0600    0.0000 C   0  0  0  0  0  0  0  0  0  0  0  0
   15.9244   -1.0600    0.0000 C   0  0  0  0  0  0  0  0  0  0  0  0
    5.5321    0.9400    0.0000 C   0  0  0  0  0  0  0  0  0  0  0  0
    4.6660    1.4400    0.0000 C   0  0  0  0  0  0  0  0  0  0  0  0
    3.8000    0.9400    0.0000 C   0  0  0  0  0  0  0  0  0  0  0  0
    3.8000   -0.0600    0.0000 C   0  0  0  0  0  0  0  0  0  0  0  0
    4.6660   -0.5600    0.0000 C   0  0  0  0  0  0  0  0  0  0  0  0
    2.9061    1.4747    0.0000 C   0  0  0  0  0  0  0  0  0  0  0  0
    2.9061   -0.5947    0.0000 C   0  0  0  0  0  0  0  0  0  0  0  0
    2.0000    0.9608    0.0000 C   0  0  0  0  0  0  0  0  0  0  0  0
    2.0000   -0.0808    0.0000 C   0  0  0  0  0  0  0  0  0  0  0  0
   10.9837    0.5477    0.0000 H   0  0  0  0  0  0  0  0  0  0  0  0
   11.3822   -0.1426    0.0000 H   0  0  0  0  0  0  0  0  0  0  0  0
   12.8588    2.4150    0.0000 H   0  0  0  0  0  0  0  0  0  0  0  0
   12.0617    2.4150    0.0000 H   0  0  0  0  0  0  0  0  0  0  0  0
   12.0617   -0.5349    0.0000 H   0  0  0  0  0  0  0  0  0  0  0  0
   12.8588   -0.5349    0.0000 H   0  0  0  0  0  0  0  0  0  0  0  0
   13.9369    1.3323    0.0000 H   0  0  0  0  0  0  0  0  0  0  0  0
   13.5383    2.0226    0.0000 H   0  0  0  0  0  0  0  0  0  0  0  0
   11.1267    2.4150    0.0000 H   0  0  0  0  0  0  0  0  0  0  0  0
   10.3297    2.4150    0.0000 H   0  0  0  0  0  0  0  0  0  0  0  0
    9.4637    0.9651    0.0000 H   0  0  0  0  0  0  0  0  0  0  0  0
   10.2607    0.9651    0.0000 H   0  0  0  0  0  0  0  0  0  0  0  0
    9.3947    2.4150    0.0000 H   0  0  0  0  0  0  0  0  0  0  0  0
    8.5976    2.4150    0.0000 H   0  0  0  0  0  0  0  0  0  0  0  0
    7.7316    0.9651    0.0000 H   0  0  0  0  0  0  0  0  0  0  0  0
    8.5287    0.9651    0.0000 H   0  0  0  0  0  0  0  0  0  0  0  0
   15.0583    1.0600    0.0000 H   0  0  0  0  0  0  0  0  0  0  0  0
    7.2641    2.5600    0.0000 H   0  0  0  0  0  0  0  0  0  0  0  0
   16.4613    0.2500    0.0000 H   0  0  0  0  0  0  0  0  0  0  0  0
   16.4613   -1.3700    0.0000 H   0  0  0  0  0  0  0  0  0  0  0  0
    4.6660    2.0600    0.0000 H   0  0  0  0  0  0  0  0  0  0  0  0
    4.6660   -1.1800    0.0000 H   0  0  0  0  0  0  0  0  0  0  0  0
    2.9132    2.0946    0.0000 H   0  0  0  0  0  0  0  0  0  0  0  0
    2.9132   -1.2146    0.0000 H   0  0  0  0  0  0  0  0  0  0  0  0
    1.4643    1.2729    0.0000 H   0  0  0  0  0  0  0  0  0  0  0  0
    1.4643   -0.3929    0.0000 H   0  0  0  0  0  0  0  0  0  0  0  0
  1 19  1  0  0  0  0
  2 21  1  0  0  0  0
  3  4  2  0  0  0  0
  3  5  2  0  0  0  0
  3  8  1  0  0  0  0
  3 24  1  0  0  0  0
  6 10  1  0  0  0  0
  6 11  1  0  0  0  0
  6 14  1  0  0  0  0
  7 12  1  0  0  0  0
  7 13  1  0  0  0  0
  7 17  1  0  0  0  0
  8 18  1  0  0  0  0
  8 50  1  0  0  0  0
  9 24  1  0  0  0  0
  9 28  2  0  0  0  0
 10 12  1  0  0  0  0
 10 33  1  0  0  0  0
 10 34  1  0  0  0  0
 11 13  1  0  0  0  0
 11 35  1  0  0  0  0
 11 36  1  0  0  0  0
 12 37  1  0  0  0  0
 12 38  1  0  0  0  0
 13 39  1  0  0  0  0
 13 40  1  0  0  0  0
 14 15  1  0  0  0  0
 14 41  1  0  0  0  0
 14 42  1  0  0  0  0
 15 16  1  0  0  0  0
 15 43  1  0  0  0  0
 15 44  1  0  0  0  0
 16 18  1  0  0  0  0
 16 45  1  0  0  0  0
 16 46  1  0  0  0  0
 17 19  2  0  0  0  0
 17 20  1  0  0  0  0
 18 47  1  0  0  0  0
 18 48  1  0  0  0  0
 19 21  1  0  0  0  0
 20 22  2  0  0  0  0
 20 49  1  0  0  0  0
 21 23  2  0  0  0  0
 22 23  1  0  0  0  0
 22 51  1  0  0  0  0
 23 52  1  0  0  0  0
 24 25  2  0  0  0  0
 25 26  1  0  0  0  0
 25 53  1  0  0  0  0
 26 27  1  0  0  0  0
 26 29  2  0  0  0  0
 27 28  1  0  0  0  0
 27 30  2  0  0  0  0
 28 54  1  0  0  0  0
 29 31  1  0  0  0  0
 29 55  1  0  0  0  0
 30 32  1  0  0  0  0
 30 56  1  0  0  0  0
 31 32  2  0  0  0  0
 31 57  1  0  0  0  0
 32 58  1  0  0  0  0
M  END
> <PUBCHEM_COMPOUND_CID>
71574306

> <PUBCHEM_COMPOUND_CANONICALIZED>
1

> <PUBCHEM_CACTVS_COMPLEXITY>
684

> <PUBCHEM_CACTVS_HBOND_ACCEPTOR>
6

> <PUBCHEM_CACTVS_HBOND_DONOR>
1

> <PUBCHEM_CACTVS_ROTATABLE_BOND>
8

> <PUBCHEM_CACTVS_SUBSKEYS>
AAADceB7sABGAAAAAAAAAAAAAAAAAAAAAAA8eIEAAAAAAACx9AAAHAYQQAAADArBWiQ8wdNIEAKgAjRnRHDK0DAxByAI2vg4ZpgIYOLBk5HUIAhgkADIyAcQgIAOgAAAAAIQABQAAAAABCAAKAAAAAAAAA==

> <PUBCHEM_IUPAC_OPENEYE_NAME>
N-[4-[4-(2,3-dichlorophenyl)piperazin-1-yl]butyl]isoquinoline-3-sulfonamide

> <PUBCHEM_IUPAC_CAS_NAME>
N-[4-[4-(2,3-dichlorophenyl)-1-piperazinyl]butyl]-3-isoquinolinesulfonamide

> <PUBCHEM_IUPAC_NAME_MARKUP>
<I>N</I>-[4-[4-(2,3-dichlorophenyl)piperazin-1-yl]butyl]isoquinoline-3-sulfonamide

> <PUBCHEM_IUPAC_NAME>
N-[4-[4-(2,3-dichlorophenyl)piperazin-1-yl]butyl]isoquinoline-3-sulfonamide

> <PUBCHEM_IUPAC_SYSTEMATIC_NAME>
N-[4-[4-[2,3-bis(chloranyl)phenyl]piperazin-1-yl]butyl]isoquinoline-3-sulfonamide

> <PUBCHEM_IUPAC_TRADITIONAL_NAME>
N-[4-[4-(2,3-dichlorophenyl)piperazino]butyl]isoquinoline-3-sulfonamide

> <PUBCHEM_IUPAC_INCHI>
InChI=1S/C23H26Cl2N4O2S/c24-20-8-5-9-21(23(20)25)29-14-12-28(13-15-29)11-4-3-10-27-32(30,31)22-16-18-6-1-2-7-19(18)17-26-22/h1-2,5-9,16-17,27H,3-4,10-15H2

> <PUBCHEM_IUPAC_INCHIKEY>
AROYESYOAIFFDX-UHFFFAOYSA-N

> <PUBCHEM_XLOGP3_AA>
5

> <PUBCHEM_EXACT_MASS>
492.1153526

> <PUBCHEM_MOLECULAR_FORMULA>
C23H26Cl2N4O2S

> <PUBCHEM_MOLECULAR_WEIGHT>
493.4

> <PUBCHEM_OPENEYE_CAN_SMILES>
C1CN(CCN1CCCCNS(=O)(=O)C2=CC3=CC=CC=C3C=N2)C4=C(C(=CC=C4)Cl)Cl

> <PUBCHEM_OPENEYE_ISO_SMILES>
C1CN(CCN1CCCCNS(=O)(=O)C2=CC3=CC=CC=C3C=N2)C4=C(C(=CC=C4)Cl)Cl

> <PUBCHEM_CACTVS_TPSA>
73.9

> <PUBCHEM_MONOISOTOPIC_WEIGHT>
492.1153526

> <PUBCHEM_TOTAL_CHARGE>
0

> <PUBCHEM_HEAVY_ATOM_COUNT>
32

> <PUBCHEM_ATOM_DEF_STEREO_COUNT>
0

> <PUBCHEM_ATOM_UDEF_STEREO_COUNT>
0

> <PUBCHEM_BOND_DEF_STEREO_COUNT>
0

> <PUBCHEM_BOND_UDEF_STEREO_COUNT>
0

> <PUBCHEM_ISOTOPIC_ATOM_COUNT>
0

> <PUBCHEM_COMPONENT_COUNT>
1

> <PUBCHEM_CACTVS_TAUTO_COUNT>
-1

> <PUBCHEM_COORDINATE_TYPE>
1
5
255

> <PUBCHEM_BONDANNOTATIONS>
17  19  8
17  20  8
19  21  8
20  22  8
21  23  8
22  23  8
24  25  8
25  26  8
26  27  8
26  29  8
27  28  8
27  30  8
29  31  8
30  32  8
31  32  8
9  24  8
9  28  8

$$$$
