13422623
  -OEChem-09292322092D

 59 62  0     1  0  0  0  0  0999 V2000
    6.9326    0.0000    0.0000 Cl  0  0  0  0  0  0  0  0  0  0  0  0
   10.4891    3.9410    0.0000 O   0  0  0  0  0  0  0  0  0  0  0  0
    9.2884    7.2397    0.0000 O   0  0  0  0  0  0  0  0  0  0  0  0
    9.6322    5.4970    0.0000 N   0  0  0  0  0  0  0  0  0  0  0  0
    5.2811    5.7565    0.0000 N   0  0  0  0  0  0  0  0  0  0  0  0
    3.4017    5.0725    0.0000 N   0  0  0  0  0  0  0  0  0  0  0  0
    1.6960    5.3732    0.0000 N   0  0  0  0  0  0  0  0  0  0  0  0
    2.2884    3.7456    0.0000 N   0  0  0  0  0  0  0  0  0  0  0  0
   12.6135    6.1424    0.0000 C   0  0  2  0  0  0  0  0  0  0  0  0
   12.8723    7.1083    0.0000 C   0  0  1  0  0  0  0  0  0  0  0  0
   11.2408    5.5504    0.0000 C   0  0  2  0  0  0  0  0  0  0  0  0
   10.8988    6.4901    0.0000 C   0  0  1  0  0  0  0  0  0  0  0  0
   12.1357    8.0909    0.0000 C   0  0  0  0  0  0  0  0  0  0  0  0
   14.0125    5.6336    0.0000 C   0  0  0  0  0  0  0  0  0  0  0  0
   14.2713    6.5995    0.0000 C   0  0  0  0  0  0  0  0  0  0  0  0
   10.4559    4.9404    0.0000 C   0  0  0  0  0  0  0  0  0  0  0  0
    9.9054    6.4528    0.0000 C   0  0  0  0  0  0  0  0  0  0  0  0
    8.6926    5.1550    0.0000 C   0  0  0  0  0  0  0  0  0  0  0  0
    7.9265    5.7978    0.0000 C   0  0  0  0  0  0  0  0  0  0  0  0
    6.9868    5.4557    0.0000 C   0  0  0  0  0  0  0  0  0  0  0  0
    6.2208    6.0985    0.0000 C   0  0  0  0  0  0  0  0  0  0  0  0
    4.5150    6.3993    0.0000 C   0  0  0  0  0  0  0  0  0  0  0  0
    5.1074    4.7717    0.0000 C   0  0  0  0  0  0  0  0  0  0  0  0
    3.5753    6.0573    0.0000 C   0  0  0  0  0  0  0  0  0  0  0  0
    4.1677    4.4297    0.0000 C   0  0  0  0  0  0  0  0  0  0  0  0
    2.4620    4.7304    0.0000 C   0  0  0  0  0  0  0  0  0  0  0  0
    0.7563    5.0312    0.0000 C   0  0  0  0  0  0  0  0  0  0  0  0
    1.3486    3.4036    0.0000 C   0  0  0  0  0  0  0  0  0  0  0  0
    0.5826    4.0464    0.0000 C   0  0  0  0  0  0  0  0  0  0  0  0
   12.3935    5.3214    0.0000 H   0  0  0  0  0  0  0  0  0  0  0  0
   13.0923    7.9294    0.0000 H   0  0  0  0  0  0  0  0  0  0  0  0
   11.5315    4.7516    0.0000 H   0  0  0  0  0  0  0  0  0  0  0  0
   10.6081    7.2888    0.0000 H   0  0  0  0  0  0  0  0  0  0  0  0
   12.4535    8.6233    0.0000 H   0  0  0  0  0  0  0  0  0  0  0  0
   11.5226    8.1829    0.0000 H   0  0  0  0  0  0  0  0  0  0  0  0
   13.8175    5.0450    0.0000 H   0  0  0  0  0  0  0  0  0  0  0  0
   14.6064    5.4558    0.0000 H   0  0  0  0  0  0  0  0  0  0  0  0
   14.8652    6.4217    0.0000 H   0  0  0  0  0  0  0  0  0  0  0  0
   14.4662    7.1881    0.0000 H   0  0  0  0  0  0  0  0  0  0  0  0
    8.2176    4.7564    0.0000 H   0  0  0  0  0  0  0  0  0  0  0  0
    9.0026    4.6180    0.0000 H   0  0  0  0  0  0  0  0  0  0  0  0
    8.4014    6.1963    0.0000 H   0  0  0  0  0  0  0  0  0  0  0  0
    7.6165    6.3347    0.0000 H   0  0  0  0  0  0  0  0  0  0  0  0
    6.5119    5.0572    0.0000 H   0  0  0  0  0  0  0  0  0  0  0  0
    7.2968    4.9188    0.0000 H   0  0  0  0  0  0  0  0  0  0  0  0
    6.6957    6.4971    0.0000 H   0  0  0  0  0  0  0  0  0  0  0  0
    5.9108    6.6355    0.0000 H   0  0  0  0  0  0  0  0  0  0  0  0
    4.9900    6.7978    0.0000 H   0  0  0  0  0  0  0  0  0  0  0  0
    4.2050    6.9362    0.0000 H   0  0  0  0  0  0  0  0  0  0  0  0
    5.2151    4.1611    0.0000 H   0  0  0  0  0  0  0  0  0  0  0  0
    5.7274    4.7717    0.0000 H   0  0  0  0  0  0  0  0  0  0  0  0
    3.4677    6.6679    0.0000 H   0  0  0  0  0  0  0  0  0  0  0  0
    2.9553    6.0573    0.0000 H   0  0  0  0  0  0  0  0  0  0  0  0
    3.6928    4.0312    0.0000 H   0  0  0  0  0  0  0  0  0  0  0  0
    4.4777    3.8927    0.0000 H   0  0  0  0  0  0  0  0  0  0  0  0
    0.2813    5.4297    0.0000 H   0  0  0  0  0  0  0  0  0  0  0  0
    1.2410    2.7930    0.0000 H   0  0  0  0  0  0  0  0  0  0  0  0
    0.0000    3.8344    0.0000 H   0  0  0  0  0  0  0  0  0  0  0  0
    7.9326    0.0000    0.0000 H   0  0  0  0  0  0  0  0  0  0  0  0
  1 59  1  0  0  0  0
  2 16  2  0  0  0  0
  3 17  2  0  0  0  0
  4 16  1  0  0  0  0
  4 17  1  0  0  0  0
  4 18  1  0  0  0  0
  5 21  1  0  0  0  0
  5 22  1  0  0  0  0
  5 23  1  0  0  0  0
  6 24  1  0  0  0  0
  6 25  1  0  0  0  0
  6 26  1  0  0  0  0
  7 26  2  0  0  0  0
  7 27  1  0  0  0  0
  8 26  1  0  0  0  0
  8 28  2  0  0  0  0
  9 11  1  0  0  0  0
  9 13  1  0  0  0  0
  9 14  1  0  0  0  0
  9 30  1  1  0  0  0
 10 12  1  0  0  0  0
 10 13  1  0  0  0  0
 10 15  1  0  0  0  0
 10 31  1  6  0  0  0
 11 12  1  0  0  0  0
 11 16  1  0  0  0  0
 11 32  1  6  0  0  0
 12 17  1  0  0  0  0
 12 33  1  6  0  0  0
 13 34  1  0  0  0  0
 13 35  1  0  0  0  0
 14 15  1  0  0  0  0
 14 36  1  0  0  0  0
 14 37  1  0  0  0  0
 15 38  1  0  0  0  0
 15 39  1  0  0  0  0
 18 19  1  0  0  0  0
 18 40  1  0  0  0  0
 18 41  1  0  0  0  0
 19 20  1  0  0  0  0
 19 42  1  0  0  0  0
 19 43  1  0  0  0  0
 20 21  1  0  0  0  0
 20 44  1  0  0  0  0
 20 45  1  0  0  0  0
 21 46  1  0  0  0  0
 21 47  1  0  0  0  0
 22 24  1  0  0  0  0
 22 48  1  0  0  0  0
 22 49  1  0  0  0  0
 23 25  1  0  0  0  0
 23 50  1  0  0  0  0
 23 51  1  0  0  0  0
 24 52  1  0  0  0  0
 24 53  1  0  0  0  0
 25 54  1  0  0  0  0
 25 55  1  0  0  0  0
 27 29  2  0  0  0  0
 27 56  1  0  0  0  0
 28 29  1  0  0  0  0
 28 57  1  0  0  0  0
 29 58  1  0  0  0  0
M  END
> <PUBCHEM_COMPOUND_CID>
13422623

> <PUBCHEM_COMPOUND_CANONICALIZED>
1

> <PUBCHEM_CACTVS_COMPLEXITY>
572

> <PUBCHEM_CACTVS_HBOND_ACCEPTOR>
6

> <PUBCHEM_CACTVS_HBOND_DONOR>
1

> <PUBCHEM_CACTVS_ROTATABLE_BOND>
6

> <PUBCHEM_CACTVS_SUBSKEYS>
AAADceB7sAAEAAAAAAAAAAAAAAAAAeMEAAA8WIAAAAAWAAABgAAAHgAAAAAADQDBkgQ9kJcIEACoADF3dACAgCkRAqAJUCE4ZBCASJJAyUAUBAgIBiLAACEdiMCOgAAAAAAAAAAAAAQAACAAAQAACAAAAA==

> <PUBCHEM_IUPAC_OPENEYE_NAME>
(1S,2R,6S,7R)-4-[4-(4-pyrimidin-2-ylpiperazin-1-yl)butyl]-4-azatricyclo[5.2.1.02,6]decane-3,5-dione;hydrochloride

> <PUBCHEM_IUPAC_CAS_NAME>
(1S,2R,6S,7R)-4-[4-[4-(2-pyrimidinyl)-1-piperazinyl]butyl]-4-azatricyclo[5.2.1.02,6]decane-3,5-dione;hydrochloride

> <PUBCHEM_IUPAC_NAME_MARKUP>
(1<I>S</I>,2<I>R</I>,6<I>S</I>,7<I>R</I>)-4-[4-(4-pyrimidin-2-ylpiperazin-1-yl)butyl]-4-azatricyclo[5.2.1.0<SUP>2,6</SUP>]decane-3,5-dione;hydrochloride

> <PUBCHEM_IUPAC_NAME>
(1S,2R,6S,7R)-4-[4-(4-pyrimidin-2-ylpiperazin-1-yl)butyl]-4-azatricyclo[5.2.1.02,6]decane-3,5-dione;hydrochloride

> <PUBCHEM_IUPAC_SYSTEMATIC_NAME>
(1S,2R,6S,7R)-4-[4-(4-pyrimidin-2-ylpiperazin-1-yl)butyl]-4-azatricyclo[5.2.1.02,6]decane-3,5-dione;hydrochloride

> <PUBCHEM_IUPAC_TRADITIONAL_NAME>
(1S,2R,6S,7R)-4-[4-[4-(2-pyrimidyl)piperazino]butyl]-4-azatricyclo[5.2.1.02,6]decane-3,5-quinone;hydrochloride

> <PUBCHEM_IUPAC_INCHI>
InChI=1S/C21H29N5O2.ClH/c27-19-17-15-4-5-16(14-15)18(17)20(28)26(19)9-2-1-8-24-10-12-25(13-11-24)21-22-6-3-7-23-21;/h3,6-7,15-18H,1-2,4-5,8-14H2;1H/t15-,16+,17+,18-;

> <PUBCHEM_IUPAC_INCHIKEY>
ACVFJYKNBOHIMH-DPFKZJTMSA-N

> <PUBCHEM_EXACT_MASS>
419.2088029

> <PUBCHEM_MOLECULAR_FORMULA>
C21H30ClN5O2

> <PUBCHEM_MOLECULAR_WEIGHT>
419.9

> <PUBCHEM_OPENEYE_CAN_SMILES>
C1CC2CC1C3C2C(=O)N(C3=O)CCCCN4CCN(CC4)C5=NC=CC=N5.Cl

> <PUBCHEM_OPENEYE_ISO_SMILES>
C1C[C@H]2C[C@@H]1[C@H]3[C@@H]2C(=O)N(C3=O)CCCCN4CCN(CC4)C5=NC=CC=N5.Cl

> <PUBCHEM_CACTVS_TPSA>
69.6

> <PUBCHEM_MONOISOTOPIC_WEIGHT>
419.2088029

> <PUBCHEM_TOTAL_CHARGE>
0

> <PUBCHEM_HEAVY_ATOM_COUNT>
29

> <PUBCHEM_ATOM_DEF_STEREO_COUNT>
4

> <PUBCHEM_ATOM_UDEF_STEREO_COUNT>
0

> <PUBCHEM_BOND_DEF_STEREO_COUNT>
0

> <PUBCHEM_BOND_UDEF_STEREO_COUNT>
0

> <PUBCHEM_ISOTOPIC_ATOM_COUNT>
0

> <PUBCHEM_COMPONENT_COUNT>
2

> <PUBCHEM_CACTVS_TAUTO_COUNT>
-1

> <PUBCHEM_COORDINATE_TYPE>
1
5
255

> <PUBCHEM_BONDANNOTATIONS>
10  31  6
11  32  6
12  33  6
27  29  8
28  29  8
7  26  8
7  27  8
8  26  8
8  28  8
9  30  5

$$$$
