11723696
  -OEChem-09292322512D

 37 38  0     1  0  0  0  0  0999 V2000
    3.0000   -2.0000    0.0000 S   0  0  0  0  0  0  0  0  0  0  0  0
    3.0000   -4.0000    0.0000 F   0  0  0  0  0  0  0  0  0  0  0  0
    2.0000   -3.0000    0.0000 F   0  0  0  0  0  0  0  0  0  0  0  0
    4.0000   -3.0000    0.0000 F   0  0  0  0  0  0  0  0  0  0  0  0
    3.0000   -1.0000    0.0000 O   0  0  0  0  0  0  0  0  0  0  0  0
    2.0000   -2.0000    0.0000 O   0  0  0  0  0  0  0  0  0  0  0  0
    4.0000   -2.0000    0.0000 O   0  0  0  0  0  0  0  0  0  0  0  0
    3.8660    3.5000    0.0000 N   0  0  3  0  0  0  0  0  0  0  0  0
    4.7320    2.0000    0.0000 C   0  0  2  0  0  0  0  0  0  0  0  0
    5.5981    2.5000    0.0000 C   0  0  0  0  0  0  0  0  0  0  0  0
    3.8660    2.5000    0.0000 C   0  0  0  0  0  0  0  0  0  0  0  0
    5.5981    3.5000    0.0000 C   0  0  0  0  0  0  0  0  0  0  0  0
    4.7320    4.0000    0.0000 C   0  0  0  0  0  0  0  0  0  0  0  0
    4.7320    1.0000    0.0000 C   0  0  0  0  0  0  0  0  0  0  0  0
    3.0000    4.0000    0.0000 C   0  0  0  0  0  0  0  0  0  0  0  0
    3.8660    0.5000    0.0000 C   0  0  0  0  0  0  0  0  0  0  0  0
    5.5981    0.5000    0.0000 C   0  0  0  0  0  0  0  0  0  0  0  0
    3.8660   -0.5000    0.0000 C   0  0  0  0  0  0  0  0  0  0  0  0
    5.5981   -0.5000    0.0000 C   0  0  0  0  0  0  0  0  0  0  0  0
    4.7320   -1.0000    0.0000 C   0  0  0  0  0  0  0  0  0  0  0  0
    3.0000   -3.0000    0.0000 C   0  0  0  0  0  0  0  0  0  0  0  0
    5.2690    1.6900    0.0000 H   0  0  0  0  0  0  0  0  0  0  0  0
    5.8101    1.9174    0.0000 H   0  0  0  0  0  0  0  0  0  0  0  0
    6.2087    2.6077    0.0000 H   0  0  0  0  0  0  0  0  0  0  0  0
    3.2554    2.6077    0.0000 H   0  0  0  0  0  0  0  0  0  0  0  0
    3.6540    1.9174    0.0000 H   0  0  0  0  0  0  0  0  0  0  0  0
    6.2087    3.3923    0.0000 H   0  0  0  0  0  0  0  0  0  0  0  0
    5.8101    4.0826    0.0000 H   0  0  0  0  0  0  0  0  0  0  0  0
    5.1306    4.4750    0.0000 H   0  0  0  0  0  0  0  0  0  0  0  0
    4.3335    4.4750    0.0000 H   0  0  0  0  0  0  0  0  0  0  0  0
    3.3100    4.5369    0.0000 H   0  0  0  0  0  0  0  0  0  0  0  0
    2.4631    4.3100    0.0000 H   0  0  0  0  0  0  0  0  0  0  0  0
    2.6900    3.4631    0.0000 H   0  0  0  0  0  0  0  0  0  0  0  0
    3.3291    0.8100    0.0000 H   0  0  0  0  0  0  0  0  0  0  0  0
    6.1350    0.8100    0.0000 H   0  0  0  0  0  0  0  0  0  0  0  0
    6.1350   -0.8100    0.0000 H   0  0  0  0  0  0  0  0  0  0  0  0
    4.7320   -1.6200    0.0000 H   0  0  0  0  0  0  0  0  0  0  0  0
  1  5  1  0  0  0  0
  1  6  2  0  0  0  0
  1  7  2  0  0  0  0
  1 21  1  0  0  0  0
  2 21  1  0  0  0  0
  3 21  1  0  0  0  0
  4 21  1  0  0  0  0
  5 18  1  0  0  0  0
  8 11  1  0  0  0  0
  8 13  1  0  0  0  0
  8 15  1  0  0  0  0
  9 10  1  0  0  0  0
  9 11  1  0  0  0  0
  9 14  1  1  0  0  0
  9 22  1  0  0  0  0
 10 12  1  0  0  0  0
 10 23  1  0  0  0  0
 10 24  1  0  0  0  0
 11 25  1  0  0  0  0
 11 26  1  0  0  0  0
 12 13  1  0  0  0  0
 12 27  1  0  0  0  0
 12 28  1  0  0  0  0
 13 29  1  0  0  0  0
 13 30  1  0  0  0  0
 14 16  2  0  0  0  0
 14 17  1  0  0  0  0
 15 31  1  0  0  0  0
 15 32  1  0  0  0  0
 15 33  1  0  0  0  0
 16 18  1  0  0  0  0
 16 34  1  0  0  0  0
 17 19  2  0  0  0  0
 17 35  1  0  0  0  0
 18 20  2  0  0  0  0
 19 20  1  0  0  0  0
 19 36  1  0  0  0  0
 20 37  1  0  0  0  0
M  END
> <PUBCHEM_COMPOUND_CID>
11723696

> <PUBCHEM_COMPOUND_CANONICALIZED>
1

> <PUBCHEM_CACTVS_COMPLEXITY>
447

> <PUBCHEM_CACTVS_HBOND_ACCEPTOR>
7

> <PUBCHEM_CACTVS_HBOND_DONOR>
0

> <PUBCHEM_CACTVS_ROTATABLE_BOND>
3

> <PUBCHEM_CACTVS_SUBSKEYS>
AAADceByMYBAAAAAAAAAAAAAAAAAAAAAAAA8QAAAAAAAAAABAAAAHwQAAAAADQTBmBQyBoMAAAKAAiBCAHACAAAgIAAIiAAOCIgIJiKAkROEMAAkwBGIiAeQ0PIOgAABAAAAAAAAAAIAAAAAAAAAAAAAAA==

> <PUBCHEM_IUPAC_OPENEYE_NAME>
[3-[(3S)-1-methyl-3-piperidyl]phenyl] trifluoromethanesulfonate

> <PUBCHEM_IUPAC_CAS_NAME>
trifluoromethanesulfonic acid [3-[(3S)-1-methyl-3-piperidinyl]phenyl] ester

> <PUBCHEM_IUPAC_NAME_MARKUP>
[3-[(3<I>S</I>)-1-methylpiperidin-3-yl]phenyl] trifluoromethanesulfonate

> <PUBCHEM_IUPAC_NAME>
[3-[(3S)-1-methylpiperidin-3-yl]phenyl] trifluoromethanesulfonate

> <PUBCHEM_IUPAC_SYSTEMATIC_NAME>
[3-[(3S)-1-methylpiperidin-3-yl]phenyl] tris(fluoranyl)methanesulfonate

> <PUBCHEM_IUPAC_TRADITIONAL_NAME>
trifluoromethanesulfonic acid [3-[(3S)-1-methyl-3-piperidyl]phenyl] ester

> <PUBCHEM_IUPAC_INCHI>
InChI=1S/C13H16F3NO3S/c1-17-7-3-5-11(9-17)10-4-2-6-12(8-10)20-21(18,19)13(14,15)16/h2,4,6,8,11H,3,5,7,9H2,1H3/t11-/m1/s1

> <PUBCHEM_IUPAC_INCHIKEY>
FNUIZCKBCPUNIM-LLVKDONJSA-N

> <PUBCHEM_XLOGP3_AA>
3.3

> <PUBCHEM_EXACT_MASS>
323.08029903

> <PUBCHEM_MOLECULAR_FORMULA>
C13H16F3NO3S

> <PUBCHEM_MOLECULAR_WEIGHT>
323.33

> <PUBCHEM_OPENEYE_CAN_SMILES>
CN1CCCC(C1)C2=CC(=CC=C2)OS(=O)(=O)C(F)(F)F

> <PUBCHEM_OPENEYE_ISO_SMILES>
CN1CCC[C@H](C1)C2=CC(=CC=C2)OS(=O)(=O)C(F)(F)F

> <PUBCHEM_CACTVS_TPSA>
55

> <PUBCHEM_MONOISOTOPIC_WEIGHT>
323.08029903

> <PUBCHEM_TOTAL_CHARGE>
0

> <PUBCHEM_HEAVY_ATOM_COUNT>
21

> <PUBCHEM_ATOM_DEF_STEREO_COUNT>
1

> <PUBCHEM_ATOM_UDEF_STEREO_COUNT>
0

> <PUBCHEM_BOND_DEF_STEREO_COUNT>
0

> <PUBCHEM_BOND_UDEF_STEREO_COUNT>
0

> <PUBCHEM_ISOTOPIC_ATOM_COUNT>
0

> <PUBCHEM_COMPONENT_COUNT>
1

> <PUBCHEM_CACTVS_TAUTO_COUNT>
-1

> <PUBCHEM_COORDINATE_TYPE>
1
5
255

> <PUBCHEM_BONDANNOTATIONS>
14  16  8
14  17  8
16  18  8
17  19  8
18  20  8
19  20  8
9  14  5

$$$$
