25130151
  -OEChem-09292322232D

 53 57  0     1  0  0  0  0  0999 V2000
    7.1594    4.8094    0.0000 S   0  0  0  0  0  0  0  0  0  0  0  0
    5.8089    1.4664    0.0000 O   0  0  0  0  0  0  0  0  0  0  0  0
    5.9674   -1.8269    0.0000 N   0  0  0  0  0  0  0  0  0  0  0  0
    4.6783   -4.5931    0.0000 N   0  0  0  0  0  0  0  0  0  0  0  0
    7.7368   -0.8812    0.0000 C   0  0  2  0  0  0  0  0  0  0  0  0
    7.1907   -1.7189    0.0000 C   0  0  1  0  0  0  0  0  0  0  0  0
    6.5958    0.8493    0.0000 C   0  0  0  0  0  0  0  0  0  0  0  0
    7.5657    0.6057    0.0000 C   0  0  0  0  0  0  0  0  0  0  0  0
    6.0644    0.0022    0.0000 C   0  0  0  0  0  0  0  0  0  0  0  0
    9.0498   -1.5826    0.0000 C   0  0  0  0  0  0  0  0  0  0  0  0
    8.5037   -2.4204    0.0000 C   0  0  0  0  0  0  0  0  0  0  0  0
    4.9889   -2.0331    0.0000 C   0  0  0  0  0  0  0  0  0  0  0  0
    6.7367    1.8394    0.0000 C   0  0  0  0  0  0  0  0  0  0  0  0
    4.6783   -2.9836    0.0000 C   0  0  0  0  0  0  0  0  0  0  0  0
    5.9498    2.4564    0.0000 C   0  0  0  0  0  0  0  0  0  0  0  0
    7.6645    2.2123    0.0000 C   0  0  0  0  0  0  0  0  0  0  0  0
    3.7320   -3.2884    0.0000 C   0  0  0  0  0  0  0  0  0  0  0  0
    5.2619   -3.7884    0.0000 C   0  0  0  0  0  0  0  0  0  0  0  0
    6.0906    3.4464    0.0000 C   0  0  0  0  0  0  0  0  0  0  0  0
    7.8054    3.2024    0.0000 C   0  0  0  0  0  0  0  0  0  0  0  0
    3.7320   -4.2884    0.0000 C   0  0  0  0  0  0  0  0  0  0  0  0
    7.0185    3.8194    0.0000 C   0  0  0  0  0  0  0  0  0  0  0  0
    2.8660   -2.7884    0.0000 C   0  0  0  0  0  0  0  0  0  0  0  0
    2.8660   -4.7884    0.0000 C   0  0  0  0  0  0  0  0  0  0  0  0
    2.0000   -3.2884    0.0000 C   0  0  0  0  0  0  0  0  0  0  0  0
    2.0000   -4.2884    0.0000 C   0  0  0  0  0  0  0  0  0  0  0  0
    8.0872    5.1824    0.0000 C   0  0  0  0  0  0  0  0  0  0  0  0
    8.2010   -0.1691    0.0000 H   0  0  0  0  0  0  0  0  0  0  0  0
    6.7266   -2.4310    0.0000 H   0  0  0  0  0  0  0  0  0  0  0  0
    8.1857    0.6022    0.0000 H   0  0  0  0  0  0  0  0  0  0  0  0
    7.6435    1.2208    0.0000 H   0  0  0  0  0  0  0  0  0  0  0  0
    5.5918    0.4035    0.0000 H   0  0  0  0  0  0  0  0  0  0  0  0
    5.5996   -0.4081    0.0000 H   0  0  0  0  0  0  0  0  0  0  0  0
    9.5788   -1.9060    0.0000 H   0  0  0  0  0  0  0  0  0  0  0  0
    9.3577   -1.0445    0.0000 H   0  0  0  0  0  0  0  0  0  0  0  0
    8.1958   -2.9585    0.0000 H   0  0  0  0  0  0  0  0  0  0  0  0
    9.0327   -2.7437    0.0000 H   0  0  0  0  0  0  0  0  0  0  0  0
    4.9684   -1.4135    0.0000 H   0  0  0  0  0  0  0  0  0  0  0  0
    4.3751   -1.9458    0.0000 H   0  0  0  0  0  0  0  0  0  0  0  0
    5.2336    1.2351    0.0000 H   0  0  0  0  0  0  0  0  0  0  0  0
    5.3745    2.2251    0.0000 H   0  0  0  0  0  0  0  0  0  0  0  0
    8.1524    1.8298    0.0000 H   0  0  0  0  0  0  0  0  0  0  0  0
    5.8819   -3.7884    0.0000 H   0  0  0  0  0  0  0  0  0  0  0  0
    5.6027    3.8290    0.0000 H   0  0  0  0  0  0  0  0  0  0  0  0
    8.3807    3.4336    0.0000 H   0  0  0  0  0  0  0  0  0  0  0  0
    4.8709   -5.1824    0.0000 H   0  0  0  0  0  0  0  0  0  0  0  0
    2.8660   -2.1684    0.0000 H   0  0  0  0  0  0  0  0  0  0  0  0
    2.8660   -5.4084    0.0000 H   0  0  0  0  0  0  0  0  0  0  0  0
    1.4631   -2.9784    0.0000 H   0  0  0  0  0  0  0  0  0  0  0  0
    1.4631   -4.5984    0.0000 H   0  0  0  0  0  0  0  0  0  0  0  0
    8.3185    4.6072    0.0000 H   0  0  0  0  0  0  0  0  0  0  0  0
    8.6624    5.4137    0.0000 H   0  0  0  0  0  0  0  0  0  0  0  0
    7.8559    5.7577    0.0000 H   0  0  0  0  0  0  0  0  0  0  0  0
  1 22  1  0  0  0  0
  1 27  1  0  0  0  0
  2  7  1  0  0  0  0
  2 40  1  0  0  0  0
  3  5  1  0  0  0  0
  3  6  1  0  0  0  0
  3 12  1  0  0  0  0
  4 18  1  0  0  0  0
  4 21  1  0  0  0  0
  4 46  1  0  0  0  0
  5  8  1  0  0  0  0
  5 10  1  0  0  0  0
  5 28  1  1  0  0  0
  6  9  1  0  0  0  0
  6 11  1  0  0  0  0
  6 29  1  6  0  0  0
  7  8  1  0  0  0  0
  7  9  1  0  0  0  0
  7 13  1  0  0  0  0
  8 30  1  0  0  0  0
  8 31  1  0  0  0  0
  9 32  1  0  0  0  0
  9 33  1  0  0  0  0
 10 11  1  0  0  0  0
 10 34  1  0  0  0  0
 10 35  1  0  0  0  0
 11 36  1  0  0  0  0
 11 37  1  0  0  0  0
 12 14  1  0  0  0  0
 12 38  1  0  0  0  0
 12 39  1  0  0  0  0
 13 15  2  0  0  0  0
 13 16  1  0  0  0  0
 14 17  1  0  0  0  0
 14 18  2  0  0  0  0
 15 19  1  0  0  0  0
 15 41  1  0  0  0  0
 16 20  2  0  0  0  0
 16 42  1  0  0  0  0
 17 21  1  0  0  0  0
 17 23  2  0  0  0  0
 18 43  1  0  0  0  0
 19 22  2  0  0  0  0
 19 44  1  0  0  0  0
 20 22  1  0  0  0  0
 20 45  1  0  0  0  0
 21 24  2  0  0  0  0
 23 25  1  0  0  0  0
 23 47  1  0  0  0  0
 24 26  1  0  0  0  0
 24 48  1  0  0  0  0
 25 26  2  0  0  0  0
 25 49  1  0  0  0  0
 26 50  1  0  0  0  0
 27 51  1  0  0  0  0
 27 52  1  0  0  0  0
 27 53  1  0  0  0  0
M  END
> <PUBCHEM_COMPOUND_CID>
25130151

> <PUBCHEM_COMPOUND_CANONICALIZED>
1

> <PUBCHEM_CACTVS_COMPLEXITY>
507

> <PUBCHEM_CACTVS_HBOND_ACCEPTOR>
3

> <PUBCHEM_CACTVS_HBOND_DONOR>
2

> <PUBCHEM_CACTVS_ROTATABLE_BOND>
4

> <PUBCHEM_CACTVS_SUBSKEYS>
AAADceB7IABAAAAAAAAAAAAAAAAAAWLAAAA8YIAABgAAAFgB9AAAHgQQCAAADGzB3gS+wfPJkgigAzRnRACCgCAxCjAI2bg4bJgIJuLg0ZGEcAhm0AHI2AeQwOAOkAAAAAACAAAgAAAAAAQAAAAAAAAAAA==

> <PUBCHEM_IUPAC_OPENEYE_NAME>
(1S,5R)-8-(1H-indol-3-ylmethyl)-3-(4-methylsulfanylphenyl)-8-azabicyclo[3.2.1]octan-3-ol

> <PUBCHEM_IUPAC_CAS_NAME>
(1S,5R)-8-(1H-indol-3-ylmethyl)-3-[4-(methylthio)phenyl]-8-azabicyclo[3.2.1]octan-3-ol

> <PUBCHEM_IUPAC_NAME_MARKUP>
(1<I>S</I>,5<I>R</I>)-8-(1<I>H</I>-indol-3-ylmethyl)-3-(4-methylsulfanylphenyl)-8-azabicyclo[3.2.1]octan-3-ol

> <PUBCHEM_IUPAC_NAME>
(1S,5R)-8-(1H-indol-3-ylmethyl)-3-(4-methylsulfanylphenyl)-8-azabicyclo[3.2.1]octan-3-ol

> <PUBCHEM_IUPAC_SYSTEMATIC_NAME>
(1S,5R)-8-(1H-indol-3-ylmethyl)-3-(4-methylsulfanylphenyl)-8-azabicyclo[3.2.1]octan-3-ol

> <PUBCHEM_IUPAC_TRADITIONAL_NAME>
(1S,5R)-8-(1H-indol-3-ylmethyl)-3-[4-(methylthio)phenyl]-8-azabicyclo[3.2.1]octan-3-ol

> <PUBCHEM_IUPAC_INCHI>
InChI=1S/C23H26N2OS/c1-27-20-10-6-17(7-11-20)23(26)12-18-8-9-19(13-23)25(18)15-16-14-24-22-5-3-2-4-21(16)22/h2-7,10-11,14,18-19,24,26H,8-9,12-13,15H2,1H3/t18-,19+,23?

> <PUBCHEM_IUPAC_INCHIKEY>
VZZGBKXBBHQYML-LIMIJEPZSA-N

> <PUBCHEM_XLOGP3_AA>
4.2

> <PUBCHEM_EXACT_MASS>
378.17658463

> <PUBCHEM_MOLECULAR_FORMULA>
C23H26N2OS

> <PUBCHEM_MOLECULAR_WEIGHT>
378.5

> <PUBCHEM_OPENEYE_CAN_SMILES>
CSC1=CC=C(C=C1)C2(CC3CCC(C2)N3CC4=CNC5=CC=CC=C54)O

> <PUBCHEM_OPENEYE_ISO_SMILES>
CSC1=CC=C(C=C1)C2(C[C@H]3CC[C@@H](C2)N3CC4=CNC5=CC=CC=C54)O

> <PUBCHEM_CACTVS_TPSA>
64.6

> <PUBCHEM_MONOISOTOPIC_WEIGHT>
378.17658463

> <PUBCHEM_TOTAL_CHARGE>
0

> <PUBCHEM_HEAVY_ATOM_COUNT>
27

> <PUBCHEM_ATOM_DEF_STEREO_COUNT>
2

> <PUBCHEM_ATOM_UDEF_STEREO_COUNT>
0

> <PUBCHEM_BOND_DEF_STEREO_COUNT>
0

> <PUBCHEM_BOND_UDEF_STEREO_COUNT>
0

> <PUBCHEM_ISOTOPIC_ATOM_COUNT>
0

> <PUBCHEM_COMPONENT_COUNT>
1

> <PUBCHEM_CACTVS_TAUTO_COUNT>
-1

> <PUBCHEM_COORDINATE_TYPE>
1
5
255

> <PUBCHEM_BONDANNOTATIONS>
13  15  8
13  16  8
14  17  8
14  18  8
15  19  8
16  20  8
17  21  8
17  23  8
19  22  8
20  22  8
21  24  8
23  25  8
24  26  8
25  26  8
4  18  8
4  21  8
5  28  5
6  29  6

$$$$
