53322449
  -OEChem-09292322312D

 88 94  0     1  0  0  0  0  0999 V2000
    4.5068   -2.7683    0.0000 O   0  0  0  0  0  0  0  0  0  0  0  0
    4.9797    7.1560    0.0000 O   0  0  0  0  0  0  0  0  0  0  0  0
    7.9794   -5.7998    0.0000 N   0  0  3  0  0  0  0  0  0  0  0  0
    4.5778    3.7152    0.0000 N   0  0  0  0  0  0  0  0  0  0  0  0
    3.7855    5.5516    0.0000 N   0  0  0  0  0  0  0  0  0  0  0  0
    4.1759    0.2745    0.0000 N   0  0  0  0  0  0  0  0  0  0  0  0
    3.1760    0.2861    0.0000 N   0  0  0  0  0  0  0  0  0  0  0  0
    2.8560   -0.6613    0.0000 N   0  0  0  0  0  0  0  0  0  0  0  0
    7.1212   -5.3029    0.0000 C   0  0  3  0  0  0  0  0  0  0  0  0
    7.1212   -4.3029    0.0000 C   0  0  0  0  0  0  0  0  0  0  0  0
    6.2552   -5.8029    0.0000 C   0  0  0  0  0  0  0  0  0  0  0  0
    8.8449   -5.3157    0.0000 C   0  0  0  0  0  0  0  0  0  0  0  0
    8.0312   -3.7961    0.0000 C   0  0  0  0  0  0  0  0  0  0  0  0
    8.8705   -4.3243    0.0000 C   0  0  0  0  0  0  0  0  0  0  0  0
    6.2552   -3.8029    0.0000 C   0  0  0  0  0  0  0  0  0  0  0  0
    5.3892   -5.3029    0.0000 C   0  0  0  0  0  0  0  0  0  0  0  0
    7.9720   -6.7998    0.0000 C   0  0  0  0  0  0  0  0  0  0  0  0
    5.3892   -4.3029    0.0000 C   0  0  0  0  0  0  0  0  0  0  0  0
    8.0392   -2.7545    0.0000 C   0  0  0  0  0  0  0  0  0  0  0  0
    6.2391   -2.7614    0.0000 C   0  0  0  0  0  0  0  0  0  0  0  0
    8.8343   -7.3062    0.0000 C   0  0  0  0  0  0  0  0  0  0  0  0
    4.4952   -3.7683    0.0000 C   0  0  0  0  0  0  0  0  0  0  0  0
    4.4952   -5.8376    0.0000 C   0  0  0  0  0  0  0  0  0  0  0  0
    7.1372   -2.2337    0.0000 C   0  0  0  0  0  0  0  0  0  0  0  0
    3.5892   -4.2821    0.0000 C   0  0  0  0  0  0  0  0  0  0  0  0
    3.5892   -5.3237    0.0000 C   0  0  0  0  0  0  0  0  0  0  0  0
    5.1749    4.5174    0.0000 C   0  0  0  0  0  0  0  0  0  0  0  0
    3.5846    3.8313    0.0000 C   0  0  0  0  0  0  0  0  0  0  0  0
    8.8269   -8.3062    0.0000 C   0  0  0  0  0  0  0  0  0  0  0  0
    4.7788    5.4356    0.0000 C   0  0  0  0  0  0  0  0  0  0  0  0
    3.1884    4.7495    0.0000 C   0  0  0  0  0  0  0  0  0  0  0  0
    4.9740    2.7971    0.0000 C   0  0  0  0  0  0  0  0  0  0  0  0
    4.3769    1.9949    0.0000 C   0  0  0  0  0  0  0  0  0  0  0  0
    3.3894    6.4698    0.0000 C   0  0  0  0  0  0  0  0  0  0  0  0
    3.6466   -2.2584    0.0000 C   0  0  0  0  0  0  0  0  0  0  0  0
    4.7730    1.0767    0.0000 C   0  0  0  0  0  0  0  0  0  0  0  0
    3.6582   -1.2584    0.0000 C   0  0  0  0  0  0  0  0  0  0  0  0
    3.9865    7.2720    0.0000 C   0  0  0  0  0  0  0  0  0  0  0  0
    2.3962    6.5858    0.0000 C   0  0  0  0  0  0  0  0  0  0  0  0
    4.4739   -0.6800    0.0000 C   0  0  0  0  0  0  0  0  0  0  0  0
    3.5904    8.1902    0.0000 C   0  0  0  0  0  0  0  0  0  0  0  0
    2.0000    7.5040    0.0000 C   0  0  0  0  0  0  0  0  0  0  0  0
    2.5971    8.3062    0.0000 C   0  0  0  0  0  0  0  0  0  0  0  0
    5.5768    7.9581    0.0000 C   0  0  0  0  0  0  0  0  0  0  0  0
    7.1208   -5.9229    0.0000 H   0  0  0  0  0  0  0  0  0  0  0  0
    5.8567   -6.2779    0.0000 H   0  0  0  0  0  0  0  0  0  0  0  0
    6.6537   -6.2779    0.0000 H   0  0  0  0  0  0  0  0  0  0  0  0
    9.0466   -5.9019    0.0000 H   0  0  0  0  0  0  0  0  0  0  0  0
    9.4577   -5.2213    0.0000 H   0  0  0  0  0  0  0  0  0  0  0  0
    9.4776   -4.4502    0.0000 H   0  0  0  0  0  0  0  0  0  0  0  0
    9.1023   -3.7492    0.0000 H   0  0  0  0  0  0  0  0  0  0  0  0
    7.3623   -6.6876    0.0000 H   0  0  0  0  0  0  0  0  0  0  0  0
    7.7557   -7.3808    0.0000 H   0  0  0  0  0  0  0  0  0  0  0  0
    8.5774   -2.4465    0.0000 H   0  0  0  0  0  0  0  0  0  0  0  0
    5.6986   -2.4576    0.0000 H   0  0  0  0  0  0  0  0  0  0  0  0
    9.4441   -7.4184    0.0000 H   0  0  0  0  0  0  0  0  0  0  0  0
    9.0507   -6.7252    0.0000 H   0  0  0  0  0  0  0  0  0  0  0  0
    4.5024   -6.4575    0.0000 H   0  0  0  0  0  0  0  0  0  0  0  0
    7.1348   -1.6137    0.0000 H   0  0  0  0  0  0  0  0  0  0  0  0
    3.0534   -3.9700    0.0000 H   0  0  0  0  0  0  0  0  0  0  0  0
    3.0534   -5.6358    0.0000 H   0  0  0  0  0  0  0  0  0  0  0  0
    5.6004    4.0665    0.0000 H   0  0  0  0  0  0  0  0  0  0  0  0
    5.6929    4.8582    0.0000 H   0  0  0  0  0  0  0  0  0  0  0  0
    2.9813    3.6882    0.0000 H   0  0  0  0  0  0  0  0  0  0  0  0
    3.6207    3.2123    0.0000 H   0  0  0  0  0  0  0  0  0  0  0  0
    8.2070   -8.3016    0.0000 H   0  0  0  0  0  0  0  0  0  0  0  0
    8.8223   -8.9262    0.0000 H   0  0  0  0  0  0  0  0  0  0  0  0
    9.4469   -8.3108    0.0000 H   0  0  0  0  0  0  0  0  0  0  0  0
    5.3821    5.5786    0.0000 H   0  0  0  0  0  0  0  0  0  0  0  0
    4.7427    6.0546    0.0000 H   0  0  0  0  0  0  0  0  0  0  0  0
    2.7629    5.2004    0.0000 H   0  0  0  0  0  0  0  0  0  0  0  0
    2.6705    4.4087    0.0000 H   0  0  0  0  0  0  0  0  0  0  0  0
    5.3995    2.3461    0.0000 H   0  0  0  0  0  0  0  0  0  0  0  0
    5.4920    3.1378    0.0000 H   0  0  0  0  0  0  0  0  0  0  0  0
    3.9514    2.4458    0.0000 H   0  0  0  0  0  0  0  0  0  0  0  0
    3.8589    1.6542    0.0000 H   0  0  0  0  0  0  0  0  0  0  0  0
    3.0373   -2.1436    0.0000 H   0  0  0  0  0  0  0  0  0  0  0  0
    3.4278   -2.8385    0.0000 H   0  0  0  0  0  0  0  0  0  0  0  0
    5.1985    0.6258    0.0000 H   0  0  0  0  0  0  0  0  0  0  0  0
    5.2910    1.4174    0.0000 H   0  0  0  0  0  0  0  0  0  0  0  0
    2.0259    6.0885    0.0000 H   0  0  0  0  0  0  0  0  0  0  0  0
    5.0613   -0.8784    0.0000 H   0  0  0  0  0  0  0  0  0  0  0  0
    3.9606    8.6875    0.0000 H   0  0  0  0  0  0  0  0  0  0  0  0
    1.3842    7.5760    0.0000 H   0  0  0  0  0  0  0  0  0  0  0  0
    2.3515    8.8755    0.0000 H   0  0  0  0  0  0  0  0  0  0  0  0
    6.0742    7.5879    0.0000 H   0  0  0  0  0  0  0  0  0  0  0  0
    5.9470    8.4555    0.0000 H   0  0  0  0  0  0  0  0  0  0  0  0
    5.0795    8.3283    0.0000 H   0  0  0  0  0  0  0  0  0  0  0  0
  1 22  1  0  0  0  0
  1 35  1  0  0  0  0
  2 38  1  0  0  0  0
  2 44  1  0  0  0  0
  3  9  1  0  0  0  0
  3 12  1  0  0  0  0
  3 17  1  0  0  0  0
  4 27  1  0  0  0  0
  4 28  1  0  0  0  0
  4 32  1  0  0  0  0
  5 30  1  0  0  0  0
  5 31  1  0  0  0  0
  5 34  1  0  0  0  0
  6  7  1  0  0  0  0
  6 36  1  0  0  0  0
  6 40  1  0  0  0  0
  7  8  2  0  0  0  0
  8 37  1  0  0  0  0
  9 10  1  0  0  0  0
  9 11  1  0  0  0  0
  9 45  1  0  0  0  0
 10 13  2  0  0  0  0
 10 15  1  0  0  0  0
 11 16  1  0  0  0  0
 11 46  1  0  0  0  0
 11 47  1  0  0  0  0
 12 14  1  0  0  0  0
 12 48  1  0  0  0  0
 12 49  1  0  0  0  0
 13 14  1  0  0  0  0
 13 19  1  0  0  0  0
 14 50  1  0  0  0  0
 14 51  1  0  0  0  0
 15 18  1  0  0  0  0
 15 20  2  0  0  0  0
 16 18  2  0  0  0  0
 16 23  1  0  0  0  0
 17 21  1  0  0  0  0
 17 52  1  0  0  0  0
 17 53  1  0  0  0  0
 18 22  1  0  0  0  0
 19 24  2  0  0  0  0
 19 54  1  0  0  0  0
 20 24  1  0  0  0  0
 20 55  1  0  0  0  0
 21 29  1  0  0  0  0
 21 56  1  0  0  0  0
 21 57  1  0  0  0  0
 22 25  2  0  0  0  0
 23 26  2  0  0  0  0
 23 58  1  0  0  0  0
 24 59  1  0  0  0  0
 25 26  1  0  0  0  0
 25 60  1  0  0  0  0
 26 61  1  0  0  0  0
 27 30  1  0  0  0  0
 27 62  1  0  0  0  0
 27 63  1  0  0  0  0
 28 31  1  0  0  0  0
 28 64  1  0  0  0  0
 28 65  1  0  0  0  0
 29 66  1  0  0  0  0
 29 67  1  0  0  0  0
 29 68  1  0  0  0  0
 30 69  1  0  0  0  0
 30 70  1  0  0  0  0
 31 71  1  0  0  0  0
 31 72  1  0  0  0  0
 32 33  1  0  0  0  0
 32 73  1  0  0  0  0
 32 74  1  0  0  0  0
 33 36  1  0  0  0  0
 33 75  1  0  0  0  0
 33 76  1  0  0  0  0
 34 38  1  0  0  0  0
 34 39  2  0  0  0  0
 35 37  1  0  0  0  0
 35 77  1  0  0  0  0
 35 78  1  0  0  0  0
 36 79  1  0  0  0  0
 36 80  1  0  0  0  0
 37 40  2  0  0  0  0
 38 41  2  0  0  0  0
 39 42  1  0  0  0  0
 39 81  1  0  0  0  0
 40 82  1  0  0  0  0
 41 43  1  0  0  0  0
 41 83  1  0  0  0  0
 42 43  2  0  0  0  0
 42 84  1  0  0  0  0
 43 85  1  0  0  0  0
 44 86  1  0  0  0  0
 44 87  1  0  0  0  0
 44 88  1  0  0  0  0
M  END
> <PUBCHEM_COMPOUND_CID>
53322449

> <PUBCHEM_COMPOUND_CANONICALIZED>
1

> <PUBCHEM_CACTVS_COMPLEXITY>
887

> <PUBCHEM_CACTVS_HBOND_ACCEPTOR>
7

> <PUBCHEM_CACTVS_HBOND_DONOR>
0

> <PUBCHEM_CACTVS_ROTATABLE_BOND>
11

> <PUBCHEM_CACTVS_SUBSKEYS>
AAADcfB/sAAAAAAAAAAAAAAAAAAAAWAAAAA8eMGCAAAAAADx1AAAHgAIAAAADCzhngY+xpMIBACiAzRnRASCDAQxsgAY2AA/fIgOZiLE8ZuXOCjmwBHY6AeQ0PMOgAADAAAYEACQAAaAADQgAAAAAAAAAA==

> <PUBCHEM_IUPAC_OPENEYE_NAME>
11-[[1-[3-[4-(2-methoxyphenyl)piperazin-1-yl]propyl]triazol-4-yl]methoxy]-6-propyl-5,6,6a,7-tetrahydro-4H-dibenzo[de,g]quinoline

> <PUBCHEM_IUPAC_CAS_NAME>
11-[[1-[3-[4-(2-methoxyphenyl)-1-piperazinyl]propyl]-4-triazolyl]methoxy]-6-propyl-5,6,6a,7-tetrahydro-4H-dibenzo[de,g]quinoline

> <PUBCHEM_IUPAC_NAME_MARKUP>
11-[[1-[3-[4-(2-methoxyphenyl)piperazin-1-yl]propyl]triazol-4-yl]methoxy]-6-propyl-5,6,6<I>a</I>,7-tetrahydro-4<I>H</I>-dibenzo[de,g]quinoline

> <PUBCHEM_IUPAC_NAME>
11-[[1-[3-[4-(2-methoxyphenyl)piperazin-1-yl]propyl]triazol-4-yl]methoxy]-6-propyl-5,6,6a,7-tetrahydro-4H-dibenzo[de,g]quinoline

> <PUBCHEM_IUPAC_SYSTEMATIC_NAME>
11-[[1-[3-[4-(2-methoxyphenyl)piperazin-1-yl]propyl]-1,2,3-triazol-4-yl]methoxy]-6-propyl-5,6,6a,7-tetrahydro-4H-dibenzo[de,g]quinoline

> <PUBCHEM_IUPAC_TRADITIONAL_NAME>
11-[[1-[3-[4-(2-methoxyphenyl)piperazino]propyl]triazol-4-yl]methoxy]-6-propyl-5,6,6a,7-tetrahydro-4H-dibenzo[de,g]quinoline

> <PUBCHEM_IUPAC_INCHI>
InChI=1S/C36H44N6O2/c1-3-16-40-19-15-27-9-6-11-30-35(27)32(40)24-28-10-7-14-34(36(28)30)44-26-29-25-42(38-37-29)18-8-17-39-20-22-41(23-21-39)31-12-4-5-13-33(31)43-2/h4-7,9-14,25,32H,3,8,15-24,26H2,1-2H3

> <PUBCHEM_IUPAC_INCHIKEY>
HGSQOYNWHXVVJS-UHFFFAOYSA-N

> <PUBCHEM_XLOGP3_AA>
5.5

> <PUBCHEM_EXACT_MASS>
592.35257467

> <PUBCHEM_MOLECULAR_FORMULA>
C36H44N6O2

> <PUBCHEM_MOLECULAR_WEIGHT>
592.8

> <PUBCHEM_OPENEYE_CAN_SMILES>
CCCN1CCC2=C3C1CC4=C(C3=CC=C2)C(=CC=C4)OCC5=CN(N=N5)CCCN6CCN(CC6)C7=CC=CC=C7OC

> <PUBCHEM_OPENEYE_ISO_SMILES>
CCCN1CCC2=C3C1CC4=C(C3=CC=C2)C(=CC=C4)OCC5=CN(N=N5)CCCN6CCN(CC6)C7=CC=CC=C7OC

> <PUBCHEM_CACTVS_TPSA>
58.9

> <PUBCHEM_MONOISOTOPIC_WEIGHT>
592.35257467

> <PUBCHEM_TOTAL_CHARGE>
0

> <PUBCHEM_HEAVY_ATOM_COUNT>
44

> <PUBCHEM_ATOM_DEF_STEREO_COUNT>
0

> <PUBCHEM_ATOM_UDEF_STEREO_COUNT>
1

> <PUBCHEM_BOND_DEF_STEREO_COUNT>
0

> <PUBCHEM_BOND_UDEF_STEREO_COUNT>
0

> <PUBCHEM_ISOTOPIC_ATOM_COUNT>
0

> <PUBCHEM_COMPONENT_COUNT>
1

> <PUBCHEM_CACTVS_TAUTO_COUNT>
-1

> <PUBCHEM_COORDINATE_TYPE>
1
5
255

> <PUBCHEM_BONDANNOTATIONS>
10  13  8
10  15  8
13  19  8
15  20  8
16  18  8
16  23  8
18  22  8
19  24  8
20  24  8
22  25  8
23  26  8
25  26  8
34  38  8
34  39  8
37  40  8
38  41  8
39  42  8
41  43  8
42  43  8
6  40  8
6  7  8
7  8  8
8  37  8
9  11  3

$$$$
