122178866
  -OEChem-09292322082D

 60 63  0     1  0  0  0  0  0999 V2000
   13.3224    0.3339    0.0000 O   0  0  0  0  0  0  0  0  0  0  0  0
   12.4564   -1.1661    0.0000 N   0  0  0  0  0  0  0  0  0  0  0  0
    7.2602    0.8339    0.0000 N   0  0  3  0  0  0  0  0  0  0  0  0
   15.1020   -0.7594    0.0000 N   0  0  0  0  0  0  0  0  0  0  0  0
    2.0000   -0.1936    0.0000 N   0  0  0  0  0  0  0  0  0  0  0  0
    9.8583    0.3339    0.0000 C   0  0  0  0  0  0  0  0  0  0  0  0
   11.5904   -0.6661    0.0000 C   0  0  0  0  0  0  0  0  0  0  0  0
   10.7243    0.8339    0.0000 C   0  0  0  0  0  0  0  0  0  0  0  0
    9.8583   -0.6661    0.0000 C   0  0  0  0  0  0  0  0  0  0  0  0
   11.5904    0.3339    0.0000 C   0  0  0  0  0  0  0  0  0  0  0  0
   10.7243   -1.1661    0.0000 C   0  0  0  0  0  0  0  0  0  0  0  0
    8.9923    0.8339    0.0000 C   0  0  0  0  0  0  0  0  0  0  0  0
    8.1263    0.3339    0.0000 C   0  0  0  0  0  0  0  0  0  0  0  0
   14.1884   -1.1661    0.0000 C   0  0  2  0  0  0  0  0  0  0  0  0
   13.3224   -0.6661    0.0000 C   0  0  0  0  0  0  0  0  0  0  0  0
    7.2602    1.8339    0.0000 C   0  0  0  0  0  0  0  0  0  0  0  0
    6.3942    0.3339    0.0000 C   0  0  0  0  0  0  0  0  0  0  0  0
   14.2930   -2.1606    0.0000 C   0  0  0  0  0  0  0  0  0  0  0  0
   15.2711   -2.3686    0.0000 C   0  0  0  0  0  0  0  0  0  0  0  0
    6.3942    2.3339    0.0000 C   0  0  0  0  0  0  0  0  0  0  0  0
   15.7711   -1.5025    0.0000 C   0  0  0  0  0  0  0  0  0  0  0  0
    5.5282    0.8339    0.0000 C   0  0  0  0  0  0  0  0  0  0  0  0
    5.5282    1.8339    0.0000 C   0  0  0  0  0  0  0  0  0  0  0  0
    4.6342    0.2992    0.0000 C   0  0  0  0  0  0  0  0  0  0  0  0
    4.6342    2.3686    0.0000 C   0  0  0  0  0  0  0  0  0  0  0  0
    3.7282    0.8131    0.0000 C   0  0  0  0  0  0  0  0  0  0  0  0
    3.7282    1.8547    0.0000 C   0  0  0  0  0  0  0  0  0  0  0  0
    2.8641    0.3097    0.0000 C   0  0  0  0  0  0  0  0  0  0  0  0
    9.3214    0.0239    0.0000 H   0  0  0  0  0  0  0  0  0  0  0  0
   12.1273   -0.3561    0.0000 H   0  0  0  0  0  0  0  0  0  0  0  0
   11.1229    1.3088    0.0000 H   0  0  0  0  0  0  0  0  0  0  0  0
   10.3258    1.3088    0.0000 H   0  0  0  0  0  0  0  0  0  0  0  0
    9.2477   -0.5585    0.0000 H   0  0  0  0  0  0  0  0  0  0  0  0
    9.6463   -1.2487    0.0000 H   0  0  0  0  0  0  0  0  0  0  0  0
   12.2010    0.2262    0.0000 H   0  0  0  0  0  0  0  0  0  0  0  0
   11.8024    0.9165    0.0000 H   0  0  0  0  0  0  0  0  0  0  0  0
   10.3258   -1.6411    0.0000 H   0  0  0  0  0  0  0  0  0  0  0  0
   11.1229   -1.6411    0.0000 H   0  0  0  0  0  0  0  0  0  0  0  0
    9.3908    1.3088    0.0000 H   0  0  0  0  0  0  0  0  0  0  0  0
    8.5938    1.3088    0.0000 H   0  0  0  0  0  0  0  0  0  0  0  0
    7.7277   -0.1411    0.0000 H   0  0  0  0  0  0  0  0  0  0  0  0
    8.5248   -0.1411    0.0000 H   0  0  0  0  0  0  0  0  0  0  0  0
   12.4564   -1.7861    0.0000 H   0  0  0  0  0  0  0  0  0  0  0  0
   14.2209   -0.5470    0.0000 H   0  0  0  0  0  0  0  0  0  0  0  0
    7.8708    1.7262    0.0000 H   0  0  0  0  0  0  0  0  0  0  0  0
    7.4723    2.4165    0.0000 H   0  0  0  0  0  0  0  0  0  0  0  0
    5.9957   -0.1411    0.0000 H   0  0  0  0  0  0  0  0  0  0  0  0
    6.7928   -0.1411    0.0000 H   0  0  0  0  0  0  0  0  0  0  0  0
   13.6730   -2.1606    0.0000 H   0  0  0  0  0  0  0  0  0  0  0  0
   14.2282   -2.7772    0.0000 H   0  0  0  0  0  0  0  0  0  0  0  0
   15.0795   -2.9582    0.0000 H   0  0  0  0  0  0  0  0  0  0  0  0
   15.8375   -2.6207    0.0000 H   0  0  0  0  0  0  0  0  0  0  0  0
    6.7928    2.8088    0.0000 H   0  0  0  0  0  0  0  0  0  0  0  0
    5.9957    2.8088    0.0000 H   0  0  0  0  0  0  0  0  0  0  0  0
   15.2309   -0.1529    0.0000 H   0  0  0  0  0  0  0  0  0  0  0  0
   16.2727   -1.8670    0.0000 H   0  0  0  0  0  0  0  0  0  0  0  0
   16.1860   -1.0418    0.0000 H   0  0  0  0  0  0  0  0  0  0  0  0
    4.6414   -0.3207    0.0000 H   0  0  0  0  0  0  0  0  0  0  0  0
    4.6414    2.9885    0.0000 H   0  0  0  0  0  0  0  0  0  0  0  0
    3.1924    2.1668    0.0000 H   0  0  0  0  0  0  0  0  0  0  0  0
  1 15  2  0  0  0  0
  2  7  1  0  0  0  0
  2 15  1  0  0  0  0
  2 43  1  0  0  0  0
  3 13  1  0  0  0  0
  3 16  1  0  0  0  0
  3 17  1  0  0  0  0
  4 14  1  0  0  0  0
  4 21  1  0  0  0  0
  4 55  1  0  0  0  0
  5 28  3  0  0  0  0
  6  8  1  0  0  0  0
  6  9  1  0  0  0  0
  6 12  1  0  0  0  0
  6 29  1  0  0  0  0
  7 10  1  0  0  0  0
  7 11  1  0  0  0  0
  7 30  1  0  0  0  0
  8 10  1  0  0  0  0
  8 31  1  0  0  0  0
  8 32  1  0  0  0  0
  9 11  1  0  0  0  0
  9 33  1  0  0  0  0
  9 34  1  0  0  0  0
 10 35  1  0  0  0  0
 10 36  1  0  0  0  0
 11 37  1  0  0  0  0
 11 38  1  0  0  0  0
 12 13  1  0  0  0  0
 12 39  1  0  0  0  0
 12 40  1  0  0  0  0
 13 41  1  0  0  0  0
 13 42  1  0  0  0  0
 14 15  1  1  0  0  0
 14 18  1  0  0  0  0
 14 44  1  0  0  0  0
 16 20  1  0  0  0  0
 16 45  1  0  0  0  0
 16 46  1  0  0  0  0
 17 22  1  0  0  0  0
 17 47  1  0  0  0  0
 17 48  1  0  0  0  0
 18 19  1  0  0  0  0
 18 49  1  0  0  0  0
 18 50  1  0  0  0  0
 19 21  1  0  0  0  0
 19 51  1  0  0  0  0
 19 52  1  0  0  0  0
 20 23  1  0  0  0  0
 20 53  1  0  0  0  0
 20 54  1  0  0  0  0
 21 56  1  0  0  0  0
 21 57  1  0  0  0  0
 22 23  2  0  0  0  0
 22 24  1  0  0  0  0
 23 25  1  0  0  0  0
 24 26  2  0  0  0  0
 24 58  1  0  0  0  0
 25 27  2  0  0  0  0
 25 59  1  0  0  0  0
 26 27  1  0  0  0  0
 26 28  1  0  0  0  0
 27 60  1  0  0  0  0
M  END
> <PUBCHEM_COMPOUND_CID>
122178866

> <PUBCHEM_COMPOUND_CANONICALIZED>
1

> <PUBCHEM_CACTVS_COMPLEXITY>
576

> <PUBCHEM_CACTVS_HBOND_ACCEPTOR>
4

> <PUBCHEM_CACTVS_HBOND_DONOR>
2

> <PUBCHEM_CACTVS_ROTATABLE_BOND>
5

> <PUBCHEM_CACTVS_SUBSKEYS>
AAADcfB7oAAAAAAAAAAAAAAAAAAAAWAAAAA8YIAAAAAAAACxAAAAHgAQAAAADSjBmAQwAIPAAACYBiFSEACiAAAgAAAIiIGIBIgI4DKAkTGUIAhglgCIiA8YgcAOwAACAAAQAACQAAQAACAAAAAAAAAAAA==

> <PUBCHEM_IUPAC_OPENEYE_NAME>
(2S)-N-[4-[2-(7-cyano-3,4-dihydro-1H-isoquinolin-2-yl)ethyl]cyclohexyl]pyrrolidine-2-carboxamide

> <PUBCHEM_IUPAC_CAS_NAME>
(2S)-N-[4-[2-(7-cyano-3,4-dihydro-1H-isoquinolin-2-yl)ethyl]cyclohexyl]-2-pyrrolidinecarboxamide

> <PUBCHEM_IUPAC_NAME_MARKUP>
(2<I>S</I>)-<I>N</I>-[4-[2-(7-cyano-3,4-dihydro-1<I>H</I>-isoquinolin-2-yl)ethyl]cyclohexyl]pyrrolidine-2-carboxamide

> <PUBCHEM_IUPAC_NAME>
(2S)-N-[4-[2-(7-cyano-3,4-dihydro-1H-isoquinolin-2-yl)ethyl]cyclohexyl]pyrrolidine-2-carboxamide

> <PUBCHEM_IUPAC_SYSTEMATIC_NAME>
(2S)-N-[4-[2-(7-cyano-3,4-dihydro-1H-isoquinolin-2-yl)ethyl]cyclohexyl]pyrrolidine-2-carboxamide

> <PUBCHEM_IUPAC_TRADITIONAL_NAME>
(2S)-N-[4-[2-(7-cyano-3,4-dihydro-1H-isoquinolin-2-yl)ethyl]cyclohexyl]pyrrolidine-2-carboxamide

> <PUBCHEM_IUPAC_INCHI>
InChI=1S/C23H32N4O/c24-15-18-3-6-19-10-13-27(16-20(19)14-18)12-9-17-4-7-21(8-5-17)26-23(28)22-2-1-11-25-22/h3,6,14,17,21-22,25H,1-2,4-5,7-13,16H2,(H,26,28)/t17?,21?,22-/m0/s1

> <PUBCHEM_IUPAC_INCHIKEY>
ZWZAPWLAVHOSSD-IVXJCAOYSA-N

> <PUBCHEM_XLOGP3_AA>
2.8

> <PUBCHEM_EXACT_MASS>
380.25761166

> <PUBCHEM_MOLECULAR_FORMULA>
C23H32N4O

> <PUBCHEM_MOLECULAR_WEIGHT>
380.5

> <PUBCHEM_OPENEYE_CAN_SMILES>
C1CC(NC1)C(=O)NC2CCC(CC2)CCN3CCC4=C(C3)C=C(C=C4)C#N

> <PUBCHEM_OPENEYE_ISO_SMILES>
C1C[C@H](NC1)C(=O)NC2CCC(CC2)CCN3CCC4=C(C3)C=C(C=C4)C#N

> <PUBCHEM_CACTVS_TPSA>
68.2

> <PUBCHEM_MONOISOTOPIC_WEIGHT>
380.25761166

> <PUBCHEM_TOTAL_CHARGE>
0

> <PUBCHEM_HEAVY_ATOM_COUNT>
28

> <PUBCHEM_ATOM_DEF_STEREO_COUNT>
1

> <PUBCHEM_ATOM_UDEF_STEREO_COUNT>
0

> <PUBCHEM_BOND_DEF_STEREO_COUNT>
0

> <PUBCHEM_BOND_UDEF_STEREO_COUNT>
0

> <PUBCHEM_ISOTOPIC_ATOM_COUNT>
0

> <PUBCHEM_COMPONENT_COUNT>
1

> <PUBCHEM_CACTVS_TAUTO_COUNT>
-1

> <PUBCHEM_COORDINATE_TYPE>
1
5
255

> <PUBCHEM_BONDANNOTATIONS>
14  15  5
22  23  8
22  24  8
23  25  8
24  26  8
25  27  8
26  27  8

$$$$
