11560215
  -OEChem-09292322272D

 58 62  0     0  0  0  0  0  0999 V2000
    7.6833    3.6619    0.0000 O   0  0  0  0  0  0  0  0  0  0  0  0
    7.6833    5.7312    0.0000 O   0  0  0  0  0  0  0  0  0  0  0  0
    5.9233    0.6966    0.0000 N   0  0  0  0  0  0  0  0  0  0  0  0
    5.9233    2.6966    0.0000 N   0  0  0  0  0  0  0  0  0  0  0  0
    2.6164   -2.6353    0.0000 N   0  0  0  0  0  0  0  0  0  0  0  0
    5.0573    1.1966    0.0000 C   0  0  0  0  0  0  0  0  0  0  0  0
    6.7893    1.1966    0.0000 C   0  0  0  0  0  0  0  0  0  0  0  0
    5.0573    2.1966    0.0000 C   0  0  0  0  0  0  0  0  0  0  0  0
    6.7893    2.1966    0.0000 C   0  0  0  0  0  0  0  0  0  0  0  0
    5.9233   -0.3034    0.0000 C   0  0  0  0  0  0  0  0  0  0  0  0
    5.0573   -0.8034    0.0000 C   0  0  0  0  0  0  0  0  0  0  0  0
    5.9233    3.6966    0.0000 C   0  0  0  0  0  0  0  0  0  0  0  0
    5.0573   -1.8034    0.0000 C   0  0  0  0  0  0  0  0  0  0  0  0
    4.1912   -2.3034    0.0000 C   0  0  0  0  0  0  0  0  0  0  0  0
    6.7893    4.1966    0.0000 C   0  0  0  0  0  0  0  0  0  0  0  0
    4.0882   -3.2921    0.0000 C   0  0  0  0  0  0  0  0  0  0  0  0
    5.0573    4.1966    0.0000 C   0  0  0  0  0  0  0  0  0  0  0  0
    6.7893    5.1966    0.0000 C   0  0  0  0  0  0  0  0  0  0  0  0
    3.2835   -1.8983    0.0000 C   0  0  0  0  0  0  0  0  0  0  0  0
    3.1097   -3.4984    0.0000 C   0  0  0  0  0  0  0  0  0  0  0  0
    5.0573    5.1966    0.0000 C   0  0  0  0  0  0  0  0  0  0  0  0
    4.7560   -4.0364    0.0000 C   0  0  0  0  0  0  0  0  0  0  0  0
    5.9233    5.6966    0.0000 C   0  0  0  0  0  0  0  0  0  0  0  0
    8.5893    4.1758    0.0000 C   0  0  0  0  0  0  0  0  0  0  0  0
    8.5893    5.2174    0.0000 C   0  0  0  0  0  0  0  0  0  0  0  0
    2.7990   -4.4489    0.0000 C   0  0  0  0  0  0  0  0  0  0  0  0
    4.4454   -4.9870    0.0000 C   0  0  0  0  0  0  0  0  0  0  0  0
    3.4669   -5.1932    0.0000 C   0  0  0  0  0  0  0  0  0  0  0  0
    5.1132   -5.7312    0.0000 C   0  0  0  0  0  0  0  0  0  0  0  0
    4.4467    1.3042    0.0000 H   0  0  0  0  0  0  0  0  0  0  0  0
    4.8452    0.6140    0.0000 H   0  0  0  0  0  0  0  0  0  0  0  0
    7.0014    0.6140    0.0000 H   0  0  0  0  0  0  0  0  0  0  0  0
    7.3999    1.3042    0.0000 H   0  0  0  0  0  0  0  0  0  0  0  0
    4.8452    2.7792    0.0000 H   0  0  0  0  0  0  0  0  0  0  0  0
    4.4467    2.0889    0.0000 H   0  0  0  0  0  0  0  0  0  0  0  0
    7.3999    2.0889    0.0000 H   0  0  0  0  0  0  0  0  0  0  0  0
    7.0014    2.7792    0.0000 H   0  0  0  0  0  0  0  0  0  0  0  0
    6.1354   -0.8860    0.0000 H   0  0  0  0  0  0  0  0  0  0  0  0
    6.5339   -0.1957    0.0000 H   0  0  0  0  0  0  0  0  0  0  0  0
    4.8452   -0.2208    0.0000 H   0  0  0  0  0  0  0  0  0  0  0  0
    4.4467   -0.9111    0.0000 H   0  0  0  0  0  0  0  0  0  0  0  0
    5.2693   -2.3860    0.0000 H   0  0  0  0  0  0  0  0  0  0  0  0
    5.6678   -1.6958    0.0000 H   0  0  0  0  0  0  0  0  0  0  0  0
    4.5203    3.8866    0.0000 H   0  0  0  0  0  0  0  0  0  0  0  0
    3.1556   -1.2916    0.0000 H   0  0  0  0  0  0  0  0  0  0  0  0
    2.0000   -2.5684    0.0000 H   0  0  0  0  0  0  0  0  0  0  0  0
    4.5203    5.5066    0.0000 H   0  0  0  0  0  0  0  0  0  0  0  0
    5.3627   -3.9086    0.0000 H   0  0  0  0  0  0  0  0  0  0  0  0
    5.9233    6.3166    0.0000 H   0  0  0  0  0  0  0  0  0  0  0  0
    8.7984    3.5921    0.0000 H   0  0  0  0  0  0  0  0  0  0  0  0
    9.2002    4.2819    0.0000 H   0  0  0  0  0  0  0  0  0  0  0  0
    9.2002    5.1113    0.0000 H   0  0  0  0  0  0  0  0  0  0  0  0
    8.7984    5.8011    0.0000 H   0  0  0  0  0  0  0  0  0  0  0  0
    2.1923   -4.5767    0.0000 H   0  0  0  0  0  0  0  0  0  0  0  0
    3.2743   -5.7825    0.0000 H   0  0  0  0  0  0  0  0  0  0  0  0
    4.6518   -6.1453    0.0000 H   0  0  0  0  0  0  0  0  0  0  0  0
    5.5273   -6.1927    0.0000 H   0  0  0  0  0  0  0  0  0  0  0  0
    5.5747   -5.3172    0.0000 H   0  0  0  0  0  0  0  0  0  0  0  0
  1 15  1  0  0  0  0
  1 24  1  0  0  0  0
  2 18  1  0  0  0  0
  2 25  1  0  0  0  0
  3  6  1  0  0  0  0
  3  7  1  0  0  0  0
  3 10  1  0  0  0  0
  4  8  1  0  0  0  0
  4  9  1  0  0  0  0
  4 12  1  0  0  0  0
  5 19  1  0  0  0  0
  5 20  1  0  0  0  0
  5 46  1  0  0  0  0
  6  8  1  0  0  0  0
  6 30  1  0  0  0  0
  6 31  1  0  0  0  0
  7  9  1  0  0  0  0
  7 32  1  0  0  0  0
  7 33  1  0  0  0  0
  8 34  1  0  0  0  0
  8 35  1  0  0  0  0
  9 36  1  0  0  0  0
  9 37  1  0  0  0  0
 10 11  1  0  0  0  0
 10 38  1  0  0  0  0
 10 39  1  0  0  0  0
 11 13  1  0  0  0  0
 11 40  1  0  0  0  0
 11 41  1  0  0  0  0
 12 15  2  0  0  0  0
 12 17  1  0  0  0  0
 13 14  1  0  0  0  0
 13 42  1  0  0  0  0
 13 43  1  0  0  0  0
 14 16  1  0  0  0  0
 14 19  2  0  0  0  0
 15 18  1  0  0  0  0
 16 20  2  0  0  0  0
 16 22  1  0  0  0  0
 17 21  2  0  0  0  0
 17 44  1  0  0  0  0
 18 23  2  0  0  0  0
 19 45  1  0  0  0  0
 20 26  1  0  0  0  0
 21 23  1  0  0  0  0
 21 47  1  0  0  0  0
 22 27  2  0  0  0  0
 22 48  1  0  0  0  0
 23 49  1  0  0  0  0
 24 25  1  0  0  0  0
 24 50  1  0  0  0  0
 24 51  1  0  0  0  0
 25 52  1  0  0  0  0
 25 53  1  0  0  0  0
 26 28  2  0  0  0  0
 26 54  1  0  0  0  0
 27 28  1  0  0  0  0
 27 29  1  0  0  0  0
 28 55  1  0  0  0  0
 29 56  1  0  0  0  0
 29 57  1  0  0  0  0
 29 58  1  0  0  0  0
M  END
> <PUBCHEM_COMPOUND_CID>
11560215

> <PUBCHEM_COMPOUND_CANONICALIZED>
1

> <PUBCHEM_CACTVS_COMPLEXITY>
524

> <PUBCHEM_CACTVS_HBOND_ACCEPTOR>
4

> <PUBCHEM_CACTVS_HBOND_DONOR>
1

> <PUBCHEM_CACTVS_ROTATABLE_BOND>
5

> <PUBCHEM_CACTVS_SUBSKEYS>
AAADceB7MAAAAAAAAAAAAAAAAAAAAWAAAAA8aIEAAAAAAFiR9AAAHgAQAAAADAzhngY+xvPJlACgAzRnRACCiCAxIiAI2aA/7JgPZuLEsZuXOCrm0Bna6AeQ0MMOiAACAgACUAAQAAQEAASgAAAAAAAAAA==

> <PUBCHEM_IUPAC_OPENEYE_NAME>
3-[3-[4-(2,3-dihydro-1,4-benzodioxin-5-yl)piperazin-1-yl]propyl]-5-methyl-1H-indole

> <PUBCHEM_IUPAC_CAS_NAME>
3-[3-[4-(2,3-dihydro-1,4-benzodioxin-5-yl)-1-piperazinyl]propyl]-5-methyl-1H-indole

> <PUBCHEM_IUPAC_NAME_MARKUP>
3-[3-[4-(2,3-dihydro-1,4-benzodioxin-5-yl)piperazin-1-yl]propyl]-5-methyl-1<I>H</I>-indole

> <PUBCHEM_IUPAC_NAME>
3-[3-[4-(2,3-dihydro-1,4-benzodioxin-5-yl)piperazin-1-yl]propyl]-5-methyl-1H-indole

> <PUBCHEM_IUPAC_SYSTEMATIC_NAME>
3-[3-[4-(2,3-dihydro-1,4-benzodioxin-5-yl)piperazin-1-yl]propyl]-5-methyl-1H-indole

> <PUBCHEM_IUPAC_TRADITIONAL_NAME>
3-[3-[4-(2,3-dihydro-1,4-benzodioxin-5-yl)piperazino]propyl]-5-methyl-1H-indole

> <PUBCHEM_IUPAC_INCHI>
InChI=1S/C24H29N3O2/c1-18-7-8-21-20(16-18)19(17-25-21)4-3-9-26-10-12-27(13-11-26)22-5-2-6-23-24(22)29-15-14-28-23/h2,5-8,16-17,25H,3-4,9-15H2,1H3

> <PUBCHEM_IUPAC_INCHIKEY>
LZFYLPRQFJAOOB-UHFFFAOYSA-N

> <PUBCHEM_XLOGP3_AA>
4.4

> <PUBCHEM_EXACT_MASS>
391.22597718

> <PUBCHEM_MOLECULAR_FORMULA>
C24H29N3O2

> <PUBCHEM_MOLECULAR_WEIGHT>
391.5

> <PUBCHEM_OPENEYE_CAN_SMILES>
CC1=CC2=C(C=C1)NC=C2CCCN3CCN(CC3)C4=C5C(=CC=C4)OCCO5

> <PUBCHEM_OPENEYE_ISO_SMILES>
CC1=CC2=C(C=C1)NC=C2CCCN3CCN(CC3)C4=C5C(=CC=C4)OCCO5

> <PUBCHEM_CACTVS_TPSA>
40.7

> <PUBCHEM_MONOISOTOPIC_WEIGHT>
391.22597718

> <PUBCHEM_TOTAL_CHARGE>
0

> <PUBCHEM_HEAVY_ATOM_COUNT>
29

> <PUBCHEM_ATOM_DEF_STEREO_COUNT>
0

> <PUBCHEM_ATOM_UDEF_STEREO_COUNT>
0

> <PUBCHEM_BOND_DEF_STEREO_COUNT>
0

> <PUBCHEM_BOND_UDEF_STEREO_COUNT>
0

> <PUBCHEM_ISOTOPIC_ATOM_COUNT>
0

> <PUBCHEM_COMPONENT_COUNT>
1

> <PUBCHEM_CACTVS_TAUTO_COUNT>
-1

> <PUBCHEM_COORDINATE_TYPE>
1
5
255

> <PUBCHEM_BONDANNOTATIONS>
12  15  8
12  17  8
14  16  8
14  19  8
15  18  8
16  20  8
16  22  8
17  21  8
18  23  8
20  26  8
21  23  8
22  27  8
26  28  8
27  28  8
5  19  8
5  20  8

$$$$
