168291617
  -OEChem-09292322452D

 57 60  0     0  0  0  0  0  0999 V2000
   15.7619   -3.0427    0.0000 Cl  0  0  0  0  0  0  0  0  0  0  0  0
    4.9889    3.0427    0.0000 O   0  0  0  0  0  0  0  0  0  0  0  0
   10.7619   -1.3106    0.0000 N   0  0  0  0  0  0  0  0  0  0  0  0
   12.7619   -1.3106    0.0000 N   0  0  0  0  0  0  0  0  0  0  0  0
    5.2619    1.2874    0.0000 N   0  0  0  0  0  0  0  0  0  0  0  0
    3.7320    1.7874    0.0000 N   0  0  0  0  0  0  0  0  0  0  0  0
    4.6783    0.4827    0.0000 N   0  0  0  0  0  0  0  0  0  0  0  0
   11.2619   -2.1767    0.0000 C   0  0  0  0  0  0  0  0  0  0  0  0
   11.2619   -0.4446    0.0000 C   0  0  0  0  0  0  0  0  0  0  0  0
    9.7619   -1.3106    0.0000 C   0  0  0  0  0  0  0  0  0  0  0  0
   12.2619   -2.1767    0.0000 C   0  0  0  0  0  0  0  0  0  0  0  0
   12.2619   -0.4446    0.0000 C   0  0  0  0  0  0  0  0  0  0  0  0
    9.2619   -0.4446    0.0000 C   0  0  0  0  0  0  0  0  0  0  0  0
    8.2619   -0.4446    0.0000 C   0  0  0  0  0  0  0  0  0  0  0  0
    7.7619    0.4214    0.0000 C   0  0  0  0  0  0  0  0  0  0  0  0
   13.7619   -1.3106    0.0000 C   0  0  0  0  0  0  0  0  0  0  0  0
    6.7619    0.4214    0.0000 C   0  0  0  0  0  0  0  0  0  0  0  0
    6.2619    1.2874    0.0000 C   0  0  0  0  0  0  0  0  0  0  0  0
   14.2619   -2.1767    0.0000 C   0  0  0  0  0  0  0  0  0  0  0  0
   14.2619   -0.4446    0.0000 C   0  0  0  0  0  0  0  0  0  0  0  0
    4.6783    2.0922    0.0000 C   0  0  0  0  0  0  0  0  0  0  0  0
   15.2619   -2.1767    0.0000 C   0  0  0  0  0  0  0  0  0  0  0  0
   15.2619   -0.4446    0.0000 C   0  0  0  0  0  0  0  0  0  0  0  0
    3.7320    0.7874    0.0000 C   0  0  0  0  0  0  0  0  0  0  0  0
   15.7619   -1.3106    0.0000 C   0  0  0  0  0  0  0  0  0  0  0  0
    2.8660    2.2874    0.0000 C   0  0  0  0  0  0  0  0  0  0  0  0
    2.8660    0.2874    0.0000 C   0  0  0  0  0  0  0  0  0  0  0  0
    2.0000    1.7874    0.0000 C   0  0  0  0  0  0  0  0  0  0  0  0
    2.0000    0.7874    0.0000 C   0  0  0  0  0  0  0  0  0  0  0  0
   10.6793   -2.3887    0.0000 H   0  0  0  0  0  0  0  0  0  0  0  0
   11.3695   -2.7872    0.0000 H   0  0  0  0  0  0  0  0  0  0  0  0
   11.3695    0.1660    0.0000 H   0  0  0  0  0  0  0  0  0  0  0  0
   10.6793   -0.2326    0.0000 H   0  0  0  0  0  0  0  0  0  0  0  0
    9.1793   -1.5227    0.0000 H   0  0  0  0  0  0  0  0  0  0  0  0
    9.8695   -1.9212    0.0000 H   0  0  0  0  0  0  0  0  0  0  0  0
   12.1542   -2.7872    0.0000 H   0  0  0  0  0  0  0  0  0  0  0  0
   12.8445   -2.3887    0.0000 H   0  0  0  0  0  0  0  0  0  0  0  0
   12.8445   -0.2326    0.0000 H   0  0  0  0  0  0  0  0  0  0  0  0
   12.1542    0.1660    0.0000 H   0  0  0  0  0  0  0  0  0  0  0  0
    9.8445   -0.2326    0.0000 H   0  0  0  0  0  0  0  0  0  0  0  0
    9.1542    0.1660    0.0000 H   0  0  0  0  0  0  0  0  0  0  0  0
    7.6793   -0.6567    0.0000 H   0  0  0  0  0  0  0  0  0  0  0  0
    8.3695   -1.0552    0.0000 H   0  0  0  0  0  0  0  0  0  0  0  0
    8.3445    0.6335    0.0000 H   0  0  0  0  0  0  0  0  0  0  0  0
    7.6542    1.0320    0.0000 H   0  0  0  0  0  0  0  0  0  0  0  0
    6.1793    0.2094    0.0000 H   0  0  0  0  0  0  0  0  0  0  0  0
    6.8695   -0.1892    0.0000 H   0  0  0  0  0  0  0  0  0  0  0  0
    6.8445    1.4995    0.0000 H   0  0  0  0  0  0  0  0  0  0  0  0
    6.1542    1.8980    0.0000 H   0  0  0  0  0  0  0  0  0  0  0  0
   13.9519   -2.7136    0.0000 H   0  0  0  0  0  0  0  0  0  0  0  0
   13.9519    0.0923    0.0000 H   0  0  0  0  0  0  0  0  0  0  0  0
   15.5719    0.0923    0.0000 H   0  0  0  0  0  0  0  0  0  0  0  0
   16.3819   -1.3106    0.0000 H   0  0  0  0  0  0  0  0  0  0  0  0
    2.8660    2.9074    0.0000 H   0  0  0  0  0  0  0  0  0  0  0  0
    2.8660   -0.3326    0.0000 H   0  0  0  0  0  0  0  0  0  0  0  0
    1.4631    2.0974    0.0000 H   0  0  0  0  0  0  0  0  0  0  0  0
    1.4631    0.4774    0.0000 H   0  0  0  0  0  0  0  0  0  0  0  0
  1 22  1  0  0  0  0
  2 21  2  0  0  0  0
  3  8  1  0  0  0  0
  3  9  1  0  0  0  0
  3 10  1  0  0  0  0
  4 11  1  0  0  0  0
  4 12  1  0  0  0  0
  4 16  1  0  0  0  0
  5  7  1  0  0  0  0
  5 18  1  0  0  0  0
  5 21  1  0  0  0  0
  6 21  1  0  0  0  0
  6 24  1  0  0  0  0
  6 26  1  0  0  0  0
  7 24  2  0  0  0  0
  8 11  1  0  0  0  0
  8 30  1  0  0  0  0
  8 31  1  0  0  0  0
  9 12  1  0  0  0  0
  9 32  1  0  0  0  0
  9 33  1  0  0  0  0
 10 13  1  0  0  0  0
 10 34  1  0  0  0  0
 10 35  1  0  0  0  0
 11 36  1  0  0  0  0
 11 37  1  0  0  0  0
 12 38  1  0  0  0  0
 12 39  1  0  0  0  0
 13 14  1  0  0  0  0
 13 40  1  0  0  0  0
 13 41  1  0  0  0  0
 14 15  1  0  0  0  0
 14 42  1  0  0  0  0
 14 43  1  0  0  0  0
 15 17  1  0  0  0  0
 15 44  1  0  0  0  0
 15 45  1  0  0  0  0
 16 19  2  0  0  0  0
 16 20  1  0  0  0  0
 17 18  1  0  0  0  0
 17 46  1  0  0  0  0
 17 47  1  0  0  0  0
 18 48  1  0  0  0  0
 18 49  1  0  0  0  0
 19 22  1  0  0  0  0
 19 50  1  0  0  0  0
 20 23  2  0  0  0  0
 20 51  1  0  0  0  0
 22 25  2  0  0  0  0
 23 25  1  0  0  0  0
 23 52  1  0  0  0  0
 24 27  1  0  0  0  0
 25 53  1  0  0  0  0
 26 28  2  0  0  0  0
 26 54  1  0  0  0  0
 27 29  2  0  0  0  0
 27 55  1  0  0  0  0
 28 29  1  0  0  0  0
 28 56  1  0  0  0  0
 29 57  1  0  0  0  0
M  END
> <PUBCHEM_COMPOUND_CID>
168291617

> <PUBCHEM_COMPOUND_CANONICALIZED>
1

> <PUBCHEM_CACTVS_COMPLEXITY>
656

> <PUBCHEM_CACTVS_HBOND_ACCEPTOR>
4

> <PUBCHEM_CACTVS_HBOND_DONOR>
0

> <PUBCHEM_CACTVS_ROTATABLE_BOND>
8

> <PUBCHEM_CACTVS_SUBSKEYS>
AAADceB7oAAEAAAAAAAAAAAAAAAAAQAAAAA8QIAAAAAAAEABAAAAHgIIAAAACArBECQxwIMAAACoACZmcACSAAAhBwAfiAAYZpiIYCLBk5GUIAhojgLIyAcQAAAAAAAAAAIAAAAAAAAABAAAAAAAAAAAAA==

> <PUBCHEM_IUPAC_OPENEYE_NAME>
2-[6-[4-(3-chlorophenyl)piperazin-1-yl]hexyl]-[1,2,4]triazolo[4,3-a]pyridin-3-one

> <PUBCHEM_IUPAC_CAS_NAME>
2-[6-[4-(3-chlorophenyl)-1-piperazinyl]hexyl]-[1,2,4]triazolo[4,3-a]pyridin-3-one

> <PUBCHEM_IUPAC_NAME_MARKUP>
2-[6-[4-(3-chlorophenyl)piperazin-1-yl]hexyl]-[1,2,4]triazolo[4,3-a]pyridin-3-one

> <PUBCHEM_IUPAC_NAME>
2-[6-[4-(3-chlorophenyl)piperazin-1-yl]hexyl]-[1,2,4]triazolo[4,3-a]pyridin-3-one

> <PUBCHEM_IUPAC_SYSTEMATIC_NAME>
2-[6-[4-(3-chlorophenyl)piperazin-1-yl]hexyl]-[1,2,4]triazolo[4,3-a]pyridin-3-one

> <PUBCHEM_IUPAC_TRADITIONAL_NAME>
2-[6-[4-(3-chlorophenyl)piperazino]hexyl]-[1,2,4]triazolo[4,3-a]pyridin-3-one

> <PUBCHEM_IUPAC_INCHI>
InChI=1S/C22H28ClN5O/c23-19-8-7-9-20(18-19)26-16-14-25(15-17-26)11-4-1-2-5-13-28-22(29)27-12-6-3-10-21(27)24-28/h3,6-10,12,18H,1-2,4-5,11,13-17H2

> <PUBCHEM_IUPAC_INCHIKEY>
VUHBOMDUPLECSX-UHFFFAOYSA-N

> <PUBCHEM_XLOGP3_AA>
3.9

> <PUBCHEM_EXACT_MASS>
413.1982382

> <PUBCHEM_MOLECULAR_FORMULA>
C22H28ClN5O

> <PUBCHEM_MOLECULAR_WEIGHT>
413.9

> <PUBCHEM_OPENEYE_CAN_SMILES>
C1CN(CCN1CCCCCCN2C(=O)N3C=CC=CC3=N2)C4=CC(=CC=C4)Cl

> <PUBCHEM_OPENEYE_ISO_SMILES>
C1CN(CCN1CCCCCCN2C(=O)N3C=CC=CC3=N2)C4=CC(=CC=C4)Cl

> <PUBCHEM_CACTVS_TPSA>
42.4

> <PUBCHEM_MONOISOTOPIC_WEIGHT>
413.1982382

> <PUBCHEM_TOTAL_CHARGE>
0

> <PUBCHEM_HEAVY_ATOM_COUNT>
29

> <PUBCHEM_ATOM_DEF_STEREO_COUNT>
0

> <PUBCHEM_ATOM_UDEF_STEREO_COUNT>
0

> <PUBCHEM_BOND_DEF_STEREO_COUNT>
0

> <PUBCHEM_BOND_UDEF_STEREO_COUNT>
0

> <PUBCHEM_ISOTOPIC_ATOM_COUNT>
0

> <PUBCHEM_COMPONENT_COUNT>
1

> <PUBCHEM_CACTVS_TAUTO_COUNT>
-1

> <PUBCHEM_COORDINATE_TYPE>
1
5
255

> <PUBCHEM_BONDANNOTATIONS>
16  19  8
16  20  8
19  22  8
20  23  8
22  25  8
23  25  8
24  27  8
26  28  8
27  29  8
28  29  8
5  21  8
5  7  8
6  21  8
6  24  8
6  26  8
7  24  8

$$$$
