134152583
  -OEChem-09292322382D

 68 71  0     0  0  0  0  0  0999 V2000
   10.7942   -4.5000    0.0000 F   0  0  0  0  0  0  0  0  0  0  0  0
    3.0000    8.0000    0.0000 F   0  0  0  0  0  0  0  0  0  0  0  0
    2.0000    7.0000    0.0000 F   0  0  0  0  0  0  0  0  0  0  0  0
    4.0000    7.0000    0.0000 F   0  0  0  0  0  0  0  0  0  0  0  0
    5.5981   -0.5000    0.0000 O   0  0  0  0  0  0  0  0  0  0  0  0
    3.0000    1.0000    0.0000 O   0  0  0  0  0  0  0  0  0  0  0  0
    6.4641   -3.0000    0.0000 N   0  0  0  0  0  0  0  0  0  0  0  0
    6.4641   -5.0000    0.0000 N   0  0  0  0  0  0  0  0  0  0  0  0
    7.3301   -7.5000    0.0000 N   0  0  0  0  0  0  0  0  0  0  0  0
    3.8660    2.5000    0.0000 N   0  0  0  0  0  0  0  0  0  0  0  0
    5.5981   -3.5000    0.0000 C   0  0  0  0  0  0  0  0  0  0  0  0
    7.3301   -3.5000    0.0000 C   0  0  0  0  0  0  0  0  0  0  0  0
    5.5981   -4.5000    0.0000 C   0  0  0  0  0  0  0  0  0  0  0  0
    7.3301   -4.5000    0.0000 C   0  0  0  0  0  0  0  0  0  0  0  0
    6.4641   -2.0000    0.0000 C   0  0  0  0  0  0  0  0  0  0  0  0
    6.4641   -6.0000    0.0000 C   0  0  0  0  0  0  0  0  0  0  0  0
    5.5981   -1.5000    0.0000 C   0  0  0  0  0  0  0  0  0  0  0  0
    7.3301   -6.5000    0.0000 C   0  0  0  0  0  0  0  0  0  0  0  0
    5.5981   -6.5000    0.0000 C   0  0  0  0  0  0  0  0  0  0  0  0
    8.1962   -6.0000    0.0000 C   0  0  0  0  0  0  0  0  0  0  0  0
    5.5981   -7.5000    0.0000 C   0  0  0  0  0  0  0  0  0  0  0  0
    4.7320   -0.0000    0.0000 C   0  0  0  0  0  0  0  0  0  0  0  0
    6.4641   -8.0000    0.0000 C   0  0  0  0  0  0  0  0  0  0  0  0
    4.7320    1.0000    0.0000 C   0  0  0  0  0  0  0  0  0  0  0  0
    9.0622   -6.5000    0.0000 C   0  0  0  0  0  0  0  0  0  0  0  0
    8.1962   -5.0000    0.0000 C   0  0  0  0  0  0  0  0  0  0  0  0
    3.8660    1.5000    0.0000 C   0  0  0  0  0  0  0  0  0  0  0  0
    9.9282   -6.0000    0.0000 C   0  0  0  0  0  0  0  0  0  0  0  0
    9.0622   -4.5000    0.0000 C   0  0  0  0  0  0  0  0  0  0  0  0
    9.9282   -5.0000    0.0000 C   0  0  0  0  0  0  0  0  0  0  0  0
    3.0000    3.0000    0.0000 C   0  0  0  0  0  0  0  0  0  0  0  0
    3.0000    4.0000    0.0000 C   0  0  0  0  0  0  0  0  0  0  0  0
    3.8660    4.5000    0.0000 C   0  0  0  0  0  0  0  0  0  0  0  0
    2.1340    4.5000    0.0000 C   0  0  0  0  0  0  0  0  0  0  0  0
    3.0000    6.0000    0.0000 C   0  0  0  0  0  0  0  0  0  0  0  0
    3.8660    5.5000    0.0000 C   0  0  0  0  0  0  0  0  0  0  0  0
    2.1340    5.5000    0.0000 C   0  0  0  0  0  0  0  0  0  0  0  0
    3.0000    7.0000    0.0000 C   0  0  0  0  0  0  0  0  0  0  0  0
    5.3860   -2.9174    0.0000 H   0  0  0  0  0  0  0  0  0  0  0  0
    4.9875   -3.6077    0.0000 H   0  0  0  0  0  0  0  0  0  0  0  0
    7.9407   -3.6077    0.0000 H   0  0  0  0  0  0  0  0  0  0  0  0
    7.5422   -2.9174    0.0000 H   0  0  0  0  0  0  0  0  0  0  0  0
    4.9875   -4.3923    0.0000 H   0  0  0  0  0  0  0  0  0  0  0  0
    5.3860   -5.0826    0.0000 H   0  0  0  0  0  0  0  0  0  0  0  0
    7.5422   -5.0826    0.0000 H   0  0  0  0  0  0  0  0  0  0  0  0
    7.9407   -4.3923    0.0000 H   0  0  0  0  0  0  0  0  0  0  0  0
    7.0747   -2.1077    0.0000 H   0  0  0  0  0  0  0  0  0  0  0  0
    6.6762   -1.4174    0.0000 H   0  0  0  0  0  0  0  0  0  0  0  0
    4.9875   -1.3923    0.0000 H   0  0  0  0  0  0  0  0  0  0  0  0
    5.3860   -2.0826    0.0000 H   0  0  0  0  0  0  0  0  0  0  0  0
    5.0611   -6.1900    0.0000 H   0  0  0  0  0  0  0  0  0  0  0  0
    5.0611   -7.8100    0.0000 H   0  0  0  0  0  0  0  0  0  0  0  0
    4.1215    0.1077    0.0000 H   0  0  0  0  0  0  0  0  0  0  0  0
    4.5200   -0.5826    0.0000 H   0  0  0  0  0  0  0  0  0  0  0  0
    6.4641   -8.6200    0.0000 H   0  0  0  0  0  0  0  0  0  0  0  0
    5.3426    0.8923    0.0000 H   0  0  0  0  0  0  0  0  0  0  0  0
    4.9441    1.5826    0.0000 H   0  0  0  0  0  0  0  0  0  0  0  0
    9.0622   -7.1200    0.0000 H   0  0  0  0  0  0  0  0  0  0  0  0
    7.6592   -4.6900    0.0000 H   0  0  0  0  0  0  0  0  0  0  0  0
   10.4651   -6.3100    0.0000 H   0  0  0  0  0  0  0  0  0  0  0  0
    9.0622   -3.8800    0.0000 H   0  0  0  0  0  0  0  0  0  0  0  0
    4.4030    2.8100    0.0000 H   0  0  0  0  0  0  0  0  0  0  0  0
    2.3894    3.1077    0.0000 H   0  0  0  0  0  0  0  0  0  0  0  0
    2.7880    2.4174    0.0000 H   0  0  0  0  0  0  0  0  0  0  0  0
    4.4030    4.1900    0.0000 H   0  0  0  0  0  0  0  0  0  0  0  0
    1.5970    4.1900    0.0000 H   0  0  0  0  0  0  0  0  0  0  0  0
    4.4030    5.8100    0.0000 H   0  0  0  0  0  0  0  0  0  0  0  0
    1.5970    5.8100    0.0000 H   0  0  0  0  0  0  0  0  0  0  0  0
  1 30  1  0  0  0  0
  2 38  1  0  0  0  0
  3 38  1  0  0  0  0
  4 38  1  0  0  0  0
  5 17  1  0  0  0  0
  5 22  1  0  0  0  0
  6 27  2  0  0  0  0
  7 11  1  0  0  0  0
  7 12  1  0  0  0  0
  7 15  1  0  0  0  0
  8 13  1  0  0  0  0
  8 14  1  0  0  0  0
  8 16  1  0  0  0  0
  9 18  1  0  0  0  0
  9 23  2  0  0  0  0
 10 27  1  0  0  0  0
 10 31  1  0  0  0  0
 10 62  1  0  0  0  0
 11 13  1  0  0  0  0
 11 39  1  0  0  0  0
 11 40  1  0  0  0  0
 12 14  1  0  0  0  0
 12 41  1  0  0  0  0
 12 42  1  0  0  0  0
 13 43  1  0  0  0  0
 13 44  1  0  0  0  0
 14 45  1  0  0  0  0
 14 46  1  0  0  0  0
 15 17  1  0  0  0  0
 15 47  1  0  0  0  0
 15 48  1  0  0  0  0
 16 18  2  0  0  0  0
 16 19  1  0  0  0  0
 17 49  1  0  0  0  0
 17 50  1  0  0  0  0
 18 20  1  0  0  0  0
 19 21  2  0  0  0  0
 19 51  1  0  0  0  0
 20 25  2  0  0  0  0
 20 26  1  0  0  0  0
 21 23  1  0  0  0  0
 21 52  1  0  0  0  0
 22 24  1  0  0  0  0
 22 53  1  0  0  0  0
 22 54  1  0  0  0  0
 23 55  1  0  0  0  0
 24 27  1  0  0  0  0
 24 56  1  0  0  0  0
 24 57  1  0  0  0  0
 25 28  1  0  0  0  0
 25 58  1  0  0  0  0
 26 29  2  0  0  0  0
 26 59  1  0  0  0  0
 28 30  2  0  0  0  0
 28 60  1  0  0  0  0
 29 30  1  0  0  0  0
 29 61  1  0  0  0  0
 31 32  1  0  0  0  0
 31 63  1  0  0  0  0
 31 64  1  0  0  0  0
 32 33  2  0  0  0  0
 32 34  1  0  0  0  0
 33 36  1  0  0  0  0
 33 65  1  0  0  0  0
 34 37  2  0  0  0  0
 34 66  1  0  0  0  0
 35 36  2  0  0  0  0
 35 37  1  0  0  0  0
 35 38  1  0  0  0  0
 36 67  1  0  0  0  0
 37 68  1  0  0  0  0
M  END
> <PUBCHEM_COMPOUND_CID>
134152583

> <PUBCHEM_COMPOUND_CANONICALIZED>
1

> <PUBCHEM_CACTVS_COMPLEXITY>
704

> <PUBCHEM_CACTVS_HBOND_ACCEPTOR>
9

> <PUBCHEM_CACTVS_HBOND_DONOR>
1

> <PUBCHEM_CACTVS_ROTATABLE_BOND>
10

> <PUBCHEM_CACTVS_SUBSKEYS>
AAADceB7scAAAAAAAAAAAAAAAAAAAAAAAAA8eIEAAAAAAAAB0AAAHwAQAAAADAjhnh48wJPIFACoAzV3VACCgCAxEiAI2KE4dJgKYObAkZGXIAhitgDYyAcQgMAOQAAAAAAAAACAAAAAAAAAAAAAAAAAAA==

> <PUBCHEM_IUPAC_OPENEYE_NAME>
3-[2-[4-[2-(4-fluorophenyl)-3-pyridyl]piperazin-1-yl]ethoxy]-N-[[4-(trifluoromethyl)phenyl]methyl]propanamide

> <PUBCHEM_IUPAC_CAS_NAME>
3-[2-[4-[2-(4-fluorophenyl)-3-pyridinyl]-1-piperazinyl]ethoxy]-N-[[4-(trifluoromethyl)phenyl]methyl]propanamide

> <PUBCHEM_IUPAC_NAME_MARKUP>
3-[2-[4-[2-(4-fluorophenyl)pyridin-3-yl]piperazin-1-yl]ethoxy]-<I>N</I>-[[4-(trifluoromethyl)phenyl]methyl]propanamide

> <PUBCHEM_IUPAC_NAME>
3-[2-[4-[2-(4-fluorophenyl)pyridin-3-yl]piperazin-1-yl]ethoxy]-N-[[4-(trifluoromethyl)phenyl]methyl]propanamide

> <PUBCHEM_IUPAC_SYSTEMATIC_NAME>
3-[2-[4-[2-(4-fluorophenyl)pyridin-3-yl]piperazin-1-yl]ethoxy]-N-[[4-(trifluoromethyl)phenyl]methyl]propanamide

> <PUBCHEM_IUPAC_TRADITIONAL_NAME>
3-[2-[4-[2-(4-fluorophenyl)-3-pyridyl]piperazino]ethoxy]-N-[4-(trifluoromethyl)benzyl]propionamide

> <PUBCHEM_IUPAC_INCHI>
InChI=1S/C28H30F4N4O2/c29-24-9-5-22(6-10-24)27-25(2-1-12-33-27)36-15-13-35(14-16-36)17-19-38-18-11-26(37)34-20-21-3-7-23(8-4-21)28(30,31)32/h1-10,12H,11,13-20H2,(H,34,37)

> <PUBCHEM_IUPAC_INCHIKEY>
FFRWNZLOGPBXRL-UHFFFAOYSA-N

> <PUBCHEM_XLOGP3_AA>
4

> <PUBCHEM_EXACT_MASS>
530.23048886

> <PUBCHEM_MOLECULAR_FORMULA>
C28H30F4N4O2

> <PUBCHEM_MOLECULAR_WEIGHT>
530.6

> <PUBCHEM_OPENEYE_CAN_SMILES>
C1CN(CCN1CCOCCC(=O)NCC2=CC=C(C=C2)C(F)(F)F)C3=C(N=CC=C3)C4=CC=C(C=C4)F

> <PUBCHEM_OPENEYE_ISO_SMILES>
C1CN(CCN1CCOCCC(=O)NCC2=CC=C(C=C2)C(F)(F)F)C3=C(N=CC=C3)C4=CC=C(C=C4)F

> <PUBCHEM_CACTVS_TPSA>
57.7

> <PUBCHEM_MONOISOTOPIC_WEIGHT>
530.23048886

> <PUBCHEM_TOTAL_CHARGE>
0

> <PUBCHEM_HEAVY_ATOM_COUNT>
38

> <PUBCHEM_ATOM_DEF_STEREO_COUNT>
0

> <PUBCHEM_ATOM_UDEF_STEREO_COUNT>
0

> <PUBCHEM_BOND_DEF_STEREO_COUNT>
0

> <PUBCHEM_BOND_UDEF_STEREO_COUNT>
0

> <PUBCHEM_ISOTOPIC_ATOM_COUNT>
0

> <PUBCHEM_COMPONENT_COUNT>
1

> <PUBCHEM_CACTVS_TAUTO_COUNT>
-1

> <PUBCHEM_COORDINATE_TYPE>
1
5
255

> <PUBCHEM_BONDANNOTATIONS>
16  18  8
16  19  8
19  21  8
20  25  8
20  26  8
21  23  8
25  28  8
26  29  8
28  30  8
29  30  8
32  33  8
32  34  8
33  36  8
34  37  8
35  36  8
35  37  8
9  18  8
9  23  8

$$$$
