95338888
  -OEChem-09292322402D

 42 44  0     1  0  0  0  0  0999 V2000
    2.6691    3.1387    0.0000 S   0  0  0  0  0  0  0  0  0  0  0  0
    2.6810   -0.1931    0.0000 N   0  0  3  0  0  0  0  0  0  0  0  0
    3.4782    1.7374    0.0000 N   0  0  0  0  0  0  0  0  0  0  0  0
    3.1810   -1.7319    0.0000 C   0  0  1  0  0  0  0  0  0  0  0  0
    3.9901   -1.1441    0.0000 C   0  0  0  0  0  0  0  0  0  0  0  0
    2.3720   -1.1441    0.0000 C   0  0  0  0  0  0  0  0  0  0  0  0
    3.6810   -0.1931    0.0000 C   0  0  0  0  0  0  0  0  0  0  0  0
    3.1810   -2.7319    0.0000 C   0  0  0  0  0  0  0  0  0  0  0  0
    2.0933    0.6159    0.0000 C   0  0  0  0  0  0  0  0  0  0  0  0
    2.5000    1.5295    0.0000 C   0  0  0  0  0  0  0  0  0  0  0  0
    2.3150   -3.2319    0.0000 C   0  0  0  0  0  0  0  0  0  0  0  0
    4.0471   -3.2319    0.0000 C   0  0  0  0  0  0  0  0  0  0  0  0
    2.0000    2.3955    0.0000 C   0  0  0  0  0  0  0  0  0  0  0  0
    2.3150   -4.2319    0.0000 C   0  0  0  0  0  0  0  0  0  0  0  0
    4.0471   -4.2319    0.0000 C   0  0  0  0  0  0  0  0  0  0  0  0
    3.5827    2.7319    0.0000 C   0  0  0  0  0  0  0  0  0  0  0  0
    3.1810   -4.7319    0.0000 C   0  0  0  0  0  0  0  0  0  0  0  0
    4.4487    3.2319    0.0000 C   0  0  0  0  0  0  0  0  0  0  0  0
    4.4487    4.2319    0.0000 C   0  0  0  0  0  0  0  0  0  0  0  0
    5.3147    4.7319    0.0000 C   0  0  0  0  0  0  0  0  0  0  0  0
    3.7335   -2.0134    0.0000 H   0  0  0  0  0  0  0  0  0  0  0  0
    4.3001   -1.6811    0.0000 H   0  0  0  0  0  0  0  0  0  0  0  0
    4.5565   -0.8920    0.0000 H   0  0  0  0  0  0  0  0  0  0  0  0
    1.8056   -0.8920    0.0000 H   0  0  0  0  0  0  0  0  0  0  0  0
    2.0620   -1.6811    0.0000 H   0  0  0  0  0  0  0  0  0  0  0  0
    4.2875   -0.0642    0.0000 H   0  0  0  0  0  0  0  0  0  0  0  0
    3.6162    0.4235    0.0000 H   0  0  0  0  0  0  0  0  0  0  0  0
    1.5793    0.9626    0.0000 H   0  0  0  0  0  0  0  0  0  0  0  0
    1.6626    0.1699    0.0000 H   0  0  0  0  0  0  0  0  0  0  0  0
    1.7781   -2.9219    0.0000 H   0  0  0  0  0  0  0  0  0  0  0  0
    4.5840   -2.9219    0.0000 H   0  0  0  0  0  0  0  0  0  0  0  0
    1.3834    2.4603    0.0000 H   0  0  0  0  0  0  0  0  0  0  0  0
    1.7781   -4.5419    0.0000 H   0  0  0  0  0  0  0  0  0  0  0  0
    4.5840   -4.5419    0.0000 H   0  0  0  0  0  0  0  0  0  0  0  0
    3.1810   -5.3519    0.0000 H   0  0  0  0  0  0  0  0  0  0  0  0
    4.6608    2.6493    0.0000 H   0  0  0  0  0  0  0  0  0  0  0  0
    5.0593    3.3396    0.0000 H   0  0  0  0  0  0  0  0  0  0  0  0
    4.2366    4.8145    0.0000 H   0  0  0  0  0  0  0  0  0  0  0  0
    3.8381    4.1243    0.0000 H   0  0  0  0  0  0  0  0  0  0  0  0
    5.6247    4.1950    0.0000 H   0  0  0  0  0  0  0  0  0  0  0  0
    5.8517    5.0419    0.0000 H   0  0  0  0  0  0  0  0  0  0  0  0
    5.0047    5.2688    0.0000 H   0  0  0  0  0  0  0  0  0  0  0  0
  1 13  1  0  0  0  0
  1 16  1  0  0  0  0
  2  6  1  0  0  0  0
  2  7  1  0  0  0  0
  2  9  1  0  0  0  0
  3 10  1  0  0  0  0
  3 16  2  0  0  0  0
  4  5  1  0  0  0  0
  4  6  1  0  0  0  0
  4  8  1  6  0  0  0
  4 21  1  0  0  0  0
  5  7  1  0  0  0  0
  5 22  1  0  0  0  0
  5 23  1  0  0  0  0
  6 24  1  0  0  0  0
  6 25  1  0  0  0  0
  7 26  1  0  0  0  0
  7 27  1  0  0  0  0
  8 11  2  0  0  0  0
  8 12  1  0  0  0  0
  9 10  1  0  0  0  0
  9 28  1  0  0  0  0
  9 29  1  0  0  0  0
 10 13  2  0  0  0  0
 11 14  1  0  0  0  0
 11 30  1  0  0  0  0
 12 15  2  0  0  0  0
 12 31  1  0  0  0  0
 13 32  1  0  0  0  0
 14 17  2  0  0  0  0
 14 33  1  0  0  0  0
 15 17  1  0  0  0  0
 15 34  1  0  0  0  0
 16 18  1  0  0  0  0
 17 35  1  0  0  0  0
 18 19  1  0  0  0  0
 18 36  1  0  0  0  0
 18 37  1  0  0  0  0
 19 20  1  0  0  0  0
 19 38  1  0  0  0  0
 19 39  1  0  0  0  0
 20 40  1  0  0  0  0
 20 41  1  0  0  0  0
 20 42  1  0  0  0  0
M  END
> <PUBCHEM_COMPOUND_CID>
95338888

> <PUBCHEM_COMPOUND_CANONICALIZED>
1

> <PUBCHEM_CACTVS_COMPLEXITY>
291

> <PUBCHEM_CACTVS_HBOND_ACCEPTOR>
3

> <PUBCHEM_CACTVS_HBOND_DONOR>
0

> <PUBCHEM_CACTVS_ROTATABLE_BOND>
5

> <PUBCHEM_CACTVS_SUBSKEYS>
AAADceB7AABAAAAAAAAAAAAAAAAAAWLAAAAwAAAAAAAAAAABwAAAHAQAAAAADQjFXgSygZMIEAikAyRiRACC8KBhCjgIiBQ4JIgIYCKgkRGUIAgggACoiAcQgMAOgAAAAAAAAAAAAAAAAAAAAAAAAAAAAA==

> <PUBCHEM_IUPAC_OPENEYE_NAME>
4-[[(3R)-3-phenylpyrrolidin-1-yl]methyl]-2-propyl-thiazole

> <PUBCHEM_IUPAC_CAS_NAME>
4-[[(3R)-3-phenyl-1-pyrrolidinyl]methyl]-2-propylthiazole

> <PUBCHEM_IUPAC_NAME_MARKUP>
4-[[(3<I>R</I>)-3-phenylpyrrolidin-1-yl]methyl]-2-propyl-1,3-thiazole

> <PUBCHEM_IUPAC_NAME>
4-[[(3R)-3-phenylpyrrolidin-1-yl]methyl]-2-propyl-1,3-thiazole

> <PUBCHEM_IUPAC_SYSTEMATIC_NAME>
4-[[(3R)-3-phenylpyrrolidin-1-yl]methyl]-2-propyl-1,3-thiazole

> <PUBCHEM_IUPAC_TRADITIONAL_NAME>
4-[[(3R)-3-phenylpyrrolidino]methyl]-2-propyl-thiazole

> <PUBCHEM_IUPAC_INCHI>
InChI=1S/C17H22N2S/c1-2-6-17-18-16(13-20-17)12-19-10-9-15(11-19)14-7-4-3-5-8-14/h3-5,7-8,13,15H,2,6,9-12H2,1H3/t15-/m0/s1

> <PUBCHEM_IUPAC_INCHIKEY>
YIQRLQSFKQBQNL-HNNXBMFYSA-N

> <PUBCHEM_XLOGP3_AA>
3.9

> <PUBCHEM_EXACT_MASS>
286.15036988

> <PUBCHEM_MOLECULAR_FORMULA>
C17H22N2S

> <PUBCHEM_MOLECULAR_WEIGHT>
286.4

> <PUBCHEM_OPENEYE_CAN_SMILES>
CCCC1=NC(=CS1)CN2CCC(C2)C3=CC=CC=C3

> <PUBCHEM_OPENEYE_ISO_SMILES>
CCCC1=NC(=CS1)CN2CC[C@@H](C2)C3=CC=CC=C3

> <PUBCHEM_CACTVS_TPSA>
44.4

> <PUBCHEM_MONOISOTOPIC_WEIGHT>
286.15036988

> <PUBCHEM_TOTAL_CHARGE>
0

> <PUBCHEM_HEAVY_ATOM_COUNT>
20

> <PUBCHEM_ATOM_DEF_STEREO_COUNT>
1

> <PUBCHEM_ATOM_UDEF_STEREO_COUNT>
0

> <PUBCHEM_BOND_DEF_STEREO_COUNT>
0

> <PUBCHEM_BOND_UDEF_STEREO_COUNT>
0

> <PUBCHEM_ISOTOPIC_ATOM_COUNT>
0

> <PUBCHEM_COMPONENT_COUNT>
1

> <PUBCHEM_CACTVS_TAUTO_COUNT>
-1

> <PUBCHEM_COORDINATE_TYPE>
1
5
255

> <PUBCHEM_BONDANNOTATIONS>
1  13  8
1  16  8
10  13  8
11  14  8
12  15  8
14  17  8
15  17  8
3  10  8
3  16  8
4  8  6
8  11  8
8  12  8

$$$$
