45260357
  -OEChem-09292322102D

 64 67  0     1  0  0  0  0  0999 V2000
    7.4417    0.0000    0.0000 Cl  0  0  0  0  0  0  0  0  0  0  0  0
   11.3224    6.6137    0.0000 O   0  0  0  0  0  0  0  0  0  0  0  0
    5.2602    7.1137    0.0000 N   0  0  3  0  0  0  0  0  0  0  0  0
   10.4564    5.1137    0.0000 N   0  0  0  0  0  0  0  0  0  0  0  0
   13.0962    5.5188    0.0000 N   0  0  0  0  0  0  0  0  0  0  0  0
    0.0000    9.1412    0.0000 N   0  0  0  0  0  0  0  0  0  0  0  0
    7.8583    6.6137    0.0000 C   0  0  0  0  0  0  0  0  0  0  0  0
    8.7243    7.1137    0.0000 C   0  0  0  0  0  0  0  0  0  0  0  0
    7.8583    5.6137    0.0000 C   0  0  0  0  0  0  0  0  0  0  0  0
    9.5904    5.6137    0.0000 C   0  0  0  0  0  0  0  0  0  0  0  0
    9.5904    6.6137    0.0000 C   0  0  0  0  0  0  0  0  0  0  0  0
    8.7243    5.1137    0.0000 C   0  0  0  0  0  0  0  0  0  0  0  0
    6.9923    7.1137    0.0000 C   0  0  0  0  0  0  0  0  0  0  0  0
    6.1263    6.6137    0.0000 C   0  0  0  0  0  0  0  0  0  0  0  0
    5.2602    8.1137    0.0000 C   0  0  0  0  0  0  0  0  0  0  0  0
    4.3942    6.6137    0.0000 C   0  0  0  0  0  0  0  0  0  0  0  0
    4.3942    8.6137    0.0000 C   0  0  0  0  0  0  0  0  0  0  0  0
    3.5282    7.1137    0.0000 C   0  0  0  0  0  0  0  0  0  0  0  0
    3.5282    8.1137    0.0000 C   0  0  0  0  0  0  0  0  0  0  0  0
   11.3224    5.6137    0.0000 C   0  0  0  0  0  0  0  0  0  0  0  0
    2.6343    6.5790    0.0000 C   0  0  0  0  0  0  0  0  0  0  0  0
    2.6343    8.6484    0.0000 C   0  0  0  0  0  0  0  0  0  0  0  0
   12.1884    5.1137    0.0000 C   0  0  0  0  0  0  0  0  0  0  0  0
    1.7282    7.0929    0.0000 C   0  0  0  0  0  0  0  0  0  0  0  0
    1.7282    8.1345    0.0000 C   0  0  0  0  0  0  0  0  0  0  0  0
   12.2915    4.1250    0.0000 C   0  0  0  0  0  0  0  0  0  0  0  0
   13.7633    4.7818    0.0000 C   0  0  0  0  0  0  0  0  0  0  0  0
   13.2633    3.9158    0.0000 C   0  0  0  0  0  0  0  0  0  0  0  0
    0.8641    8.6378    0.0000 C   0  0  0  0  0  0  0  0  0  0  0  0
   14.7633    4.7818    0.0000 C   0  0  0  0  0  0  0  0  0  0  0  0
   13.7633    3.0498    0.0000 C   0  0  0  0  0  0  0  0  0  0  0  0
   15.2633    3.9158    0.0000 C   0  0  0  0  0  0  0  0  0  0  0  0
   14.7633    3.0498    0.0000 C   0  0  0  0  0  0  0  0  0  0  0  0
    7.3214    6.3037    0.0000 H   0  0  0  0  0  0  0  0  0  0  0  0
    9.1229    7.5886    0.0000 H   0  0  0  0  0  0  0  0  0  0  0  0
    8.3258    7.5886    0.0000 H   0  0  0  0  0  0  0  0  0  0  0  0
    7.2477    5.7214    0.0000 H   0  0  0  0  0  0  0  0  0  0  0  0
    7.6463    5.0311    0.0000 H   0  0  0  0  0  0  0  0  0  0  0  0
   10.1273    5.9237    0.0000 H   0  0  0  0  0  0  0  0  0  0  0  0
   10.2010    6.5060    0.0000 H   0  0  0  0  0  0  0  0  0  0  0  0
    9.8024    7.1963    0.0000 H   0  0  0  0  0  0  0  0  0  0  0  0
    8.3258    4.6388    0.0000 H   0  0  0  0  0  0  0  0  0  0  0  0
    9.1229    4.6388    0.0000 H   0  0  0  0  0  0  0  0  0  0  0  0
    7.3908    7.5886    0.0000 H   0  0  0  0  0  0  0  0  0  0  0  0
    6.5938    7.5886    0.0000 H   0  0  0  0  0  0  0  0  0  0  0  0
    5.7277    6.1388    0.0000 H   0  0  0  0  0  0  0  0  0  0  0  0
    6.5248    6.1388    0.0000 H   0  0  0  0  0  0  0  0  0  0  0  0
   10.4564    4.4937    0.0000 H   0  0  0  0  0  0  0  0  0  0  0  0
    5.8708    8.0060    0.0000 H   0  0  0  0  0  0  0  0  0  0  0  0
    5.4723    8.6963    0.0000 H   0  0  0  0  0  0  0  0  0  0  0  0
    3.9957    6.1388    0.0000 H   0  0  0  0  0  0  0  0  0  0  0  0
    4.7928    6.1388    0.0000 H   0  0  0  0  0  0  0  0  0  0  0  0
    4.7928    9.0886    0.0000 H   0  0  0  0  0  0  0  0  0  0  0  0
    3.9957    9.0886    0.0000 H   0  0  0  0  0  0  0  0  0  0  0  0
    2.6414    5.9591    0.0000 H   0  0  0  0  0  0  0  0  0  0  0  0
    2.6414    9.2683    0.0000 H   0  0  0  0  0  0  0  0  0  0  0  0
    1.1924    6.7808    0.0000 H   0  0  0  0  0  0  0  0  0  0  0  0
   13.2241    6.1255    0.0000 H   0  0  0  0  0  0  0  0  0  0  0  0
   11.8300    3.7109    0.0000 H   0  0  0  0  0  0  0  0  0  0  0  0
   15.0733    5.3187    0.0000 H   0  0  0  0  0  0  0  0  0  0  0  0
   13.4533    2.5128    0.0000 H   0  0  0  0  0  0  0  0  0  0  0  0
   15.8833    3.9158    0.0000 H   0  0  0  0  0  0  0  0  0  0  0  0
   15.0733    2.5128    0.0000 H   0  0  0  0  0  0  0  0  0  0  0  0
    8.4417    0.0000    0.0000 H   0  0  0  0  0  0  0  0  0  0  0  0
  1 64  1  0  0  0  0
  2 20  2  0  0  0  0
  3 14  1  0  0  0  0
  3 15  1  0  0  0  0
  3 16  1  0  0  0  0
  4 10  1  0  0  0  0
  4 20  1  0  0  0  0
  4 48  1  0  0  0  0
  5 23  1  0  0  0  0
  5 27  1  0  0  0  0
  5 58  1  0  0  0  0
  6 29  3  0  0  0  0
  7  8  1  0  0  0  0
  7  9  1  0  0  0  0
  7 13  1  0  0  0  0
  7 34  1  0  0  0  0
  8 11  1  0  0  0  0
  8 35  1  0  0  0  0
  8 36  1  0  0  0  0
  9 12  1  0  0  0  0
  9 37  1  0  0  0  0
  9 38  1  0  0  0  0
 10 11  1  0  0  0  0
 10 12  1  0  0  0  0
 10 39  1  0  0  0  0
 11 40  1  0  0  0  0
 11 41  1  0  0  0  0
 12 42  1  0  0  0  0
 12 43  1  0  0  0  0
 13 14  1  0  0  0  0
 13 44  1  0  0  0  0
 13 45  1  0  0  0  0
 14 46  1  0  0  0  0
 14 47  1  0  0  0  0
 15 17  1  0  0  0  0
 15 49  1  0  0  0  0
 15 50  1  0  0  0  0
 16 18  1  0  0  0  0
 16 51  1  0  0  0  0
 16 52  1  0  0  0  0
 17 19  1  0  0  0  0
 17 53  1  0  0  0  0
 17 54  1  0  0  0  0
 18 19  2  0  0  0  0
 18 21  1  0  0  0  0
 19 22  1  0  0  0  0
 20 23  1  0  0  0  0
 21 24  2  0  0  0  0
 21 55  1  0  0  0  0
 22 25  2  0  0  0  0
 22 56  1  0  0  0  0
 23 26  2  0  0  0  0
 24 25  1  0  0  0  0
 24 57  1  0  0  0  0
 25 29  1  0  0  0  0
 26 28  1  0  0  0  0
 26 59  1  0  0  0  0
 27 28  1  0  0  0  0
 27 30  2  0  0  0  0
 28 31  2  0  0  0  0
 30 32  1  0  0  0  0
 30 60  1  0  0  0  0
 31 33  1  0  0  0  0
 31 61  1  0  0  0  0
 32 33  2  0  0  0  0
 32 62  1  0  0  0  0
 33 63  1  0  0  0  0
M  END
> <PUBCHEM_COMPOUND_CID>
45260357

> <PUBCHEM_COMPOUND_CANONICALIZED>
1

> <PUBCHEM_CACTVS_COMPLEXITY>
693

> <PUBCHEM_CACTVS_HBOND_ACCEPTOR>
3

> <PUBCHEM_CACTVS_HBOND_DONOR>
3

> <PUBCHEM_CACTVS_ROTATABLE_BOND>
5

> <PUBCHEM_CACTVS_SUBSKEYS>
AAADceB7oAAEAAAAAAAAAAAAAAAAAWAAAAA8YMEAAAAAAFix9AAAHgAQAAAADSjBngQwwPPJkAC4ByVyVACigCAnAiAImaG4ZNgI4PLAlbGUIQhglgDIyY8YicCewAACAAASAACQAAQAACQAAAAAAAAAAA==

> <PUBCHEM_IUPAC_OPENEYE_NAME>
N-[4-[2-(6-cyano-3,4-dihydro-1H-isoquinolin-2-yl)ethyl]cyclohexyl]-1H-indole-2-carboxamide;hydrochloride

> <PUBCHEM_IUPAC_CAS_NAME>
N-[4-[2-(6-cyano-3,4-dihydro-1H-isoquinolin-2-yl)ethyl]cyclohexyl]-1H-indole-2-carboxamide;hydrochloride

> <PUBCHEM_IUPAC_NAME_MARKUP>
<I>N</I>-[4-[2-(6-cyano-3,4-dihydro-1<I>H</I>-isoquinolin-2-yl)ethyl]cyclohexyl]-1<I>H</I>-indole-2-carboxamide;hydrochloride

> <PUBCHEM_IUPAC_NAME>
N-[4-[2-(6-cyano-3,4-dihydro-1H-isoquinolin-2-yl)ethyl]cyclohexyl]-1H-indole-2-carboxamide;hydrochloride

> <PUBCHEM_IUPAC_SYSTEMATIC_NAME>
N-[4-[2-(6-cyano-3,4-dihydro-1H-isoquinolin-2-yl)ethyl]cyclohexyl]-1H-indole-2-carboxamide;hydrochloride

> <PUBCHEM_IUPAC_TRADITIONAL_NAME>
N-[4-[2-(6-cyano-3,4-dihydro-1H-isoquinolin-2-yl)ethyl]cyclohexyl]-1H-indole-2-carboxamide;hydrochloride

> <PUBCHEM_IUPAC_INCHI>
InChI=1S/C27H30N4O.ClH/c28-17-20-5-8-23-18-31(14-12-21(23)15-20)13-11-19-6-9-24(10-7-19)29-27(32)26-16-22-3-1-2-4-25(22)30-26;/h1-5,8,15-16,19,24,30H,6-7,9-14,18H2,(H,29,32);1H

> <PUBCHEM_IUPAC_INCHIKEY>
CYWHFSXYERRILP-UHFFFAOYSA-N

> <PUBCHEM_EXACT_MASS>
462.2186393

> <PUBCHEM_MOLECULAR_FORMULA>
C27H31ClN4O

> <PUBCHEM_MOLECULAR_WEIGHT>
463.0

> <PUBCHEM_OPENEYE_CAN_SMILES>
C1CC(CCC1CCN2CCC3=C(C2)C=CC(=C3)C#N)NC(=O)C4=CC5=CC=CC=C5N4.Cl

> <PUBCHEM_OPENEYE_ISO_SMILES>
C1CC(CCC1CCN2CCC3=C(C2)C=CC(=C3)C#N)NC(=O)C4=CC5=CC=CC=C5N4.Cl

> <PUBCHEM_CACTVS_TPSA>
71.9

> <PUBCHEM_MONOISOTOPIC_WEIGHT>
462.2186393

> <PUBCHEM_TOTAL_CHARGE>
0

> <PUBCHEM_HEAVY_ATOM_COUNT>
33

> <PUBCHEM_ATOM_DEF_STEREO_COUNT>
0

> <PUBCHEM_ATOM_UDEF_STEREO_COUNT>
0

> <PUBCHEM_BOND_DEF_STEREO_COUNT>
0

> <PUBCHEM_BOND_UDEF_STEREO_COUNT>
0

> <PUBCHEM_ISOTOPIC_ATOM_COUNT>
0

> <PUBCHEM_COMPONENT_COUNT>
2

> <PUBCHEM_CACTVS_TAUTO_COUNT>
-1

> <PUBCHEM_COORDINATE_TYPE>
1
5
255

> <PUBCHEM_BONDANNOTATIONS>
18  19  8
18  21  8
19  22  8
21  24  8
22  25  8
23  26  8
24  25  8
26  28  8
27  28  8
27  30  8
28  31  8
30  32  8
31  33  8
32  33  8
5  23  8
5  27  8

$$$$
