155557500
  -OEChem-09292322462D

 59 63  0     0  0  0  0  0  0999 V2000
    7.0200    2.3771    0.0000 S   0  0  0  0  0  0  0  0  0  0  0  0
    6.5200    3.2432    0.0000 O   0  0  0  0  0  0  0  0  0  0  0  0
    7.5200    1.5111    0.0000 O   0  0  0  0  0  0  0  0  0  0  0  0
    2.3107    2.9009    0.0000 O   0  0  0  0  0  0  0  0  0  0  0  0
    6.4162   -2.4569    0.0000 O   0  0  0  0  0  0  0  0  0  0  0  0
    6.1540    1.8771    0.0000 N   0  0  0  0  0  0  0  0  0  0  0  0
    3.5970   -1.4419    0.0000 N   0  0  0  0  0  0  0  0  0  0  0  0
    5.1785   -1.1000    0.0000 N   0  0  0  0  0  0  0  0  0  0  0  0
    4.7233   -2.8229    0.0000 N   0  0  0  0  0  0  0  0  0  0  0  0
    5.2462    2.2822    0.0000 C   0  0  0  0  0  0  0  0  0  0  0  0
    4.5783    1.5379    0.0000 C   0  0  0  0  0  0  0  0  0  0  0  0
    5.0791    0.6792    0.0000 C   0  0  0  0  0  0  0  0  0  0  0  0
    6.0509    0.8884    0.0000 C   0  0  0  0  0  0  0  0  0  0  0  0
    4.6755   -0.2357    0.0000 C   0  0  0  0  0  0  0  0  0  0  0  0
    7.8860    2.8771    0.0000 C   0  0  0  0  0  0  0  0  0  0  0  0
    3.5998    1.7442    0.0000 C   0  0  0  0  0  0  0  0  0  0  0  0
    4.9355    3.2328    0.0000 C   0  0  0  0  0  0  0  0  0  0  0  0
    3.6981   -0.4470    0.0000 C   0  0  0  0  0  0  0  0  0  0  0  0
    3.2892    2.6947    0.0000 C   0  0  0  0  0  0  0  0  0  0  0  0
    3.9570    3.4390    0.0000 C   0  0  0  0  0  0  0  0  0  0  0  0
    8.7520    2.3771    0.0000 C   0  0  0  0  0  0  0  0  0  0  0  0
    7.8860    3.8771    0.0000 C   0  0  0  0  0  0  0  0  0  0  0  0
    9.6181    2.8771    0.0000 C   0  0  0  0  0  0  0  0  0  0  0  0
    4.5120   -1.8455    0.0000 C   0  0  0  0  0  0  0  0  0  0  0  0
    9.6181    3.8771    0.0000 C   0  0  0  0  0  0  0  0  0  0  0  0
    8.7520    4.3771    0.0000 C   0  0  0  0  0  0  0  0  0  0  0  0
    2.9527    0.2195    0.0000 C   0  0  0  0  0  0  0  0  0  0  0  0
   10.5120    2.3425    0.0000 C   0  0  0  0  0  0  0  0  0  0  0  0
   10.5120    4.4118    0.0000 C   0  0  0  0  0  0  0  0  0  0  0  0
   11.4181    2.8563    0.0000 C   0  0  0  0  0  0  0  0  0  0  0  0
   11.4181    3.8979    0.0000 C   0  0  0  0  0  0  0  0  0  0  0  0
    5.6754   -3.1286    0.0000 C   0  0  0  0  0  0  0  0  0  0  0  0
    2.0000    3.8514    0.0000 C   0  0  0  0  0  0  0  0  0  0  0  0
    5.8867   -4.1061    0.0000 C   0  0  0  0  0  0  0  0  0  0  0  0
    6.8388   -4.4118    0.0000 C   0  0  0  0  0  0  0  0  0  0  0  0
    6.5124    0.4743    0.0000 H   0  0  0  0  0  0  0  0  0  0  0  0
    3.1858    1.2827    0.0000 H   0  0  0  0  0  0  0  0  0  0  0  0
    5.3496    3.6942    0.0000 H   0  0  0  0  0  0  0  0  0  0  0  0
    3.7644    4.0283    0.0000 H   0  0  0  0  0  0  0  0  0  0  0  0
    8.7520    1.7571    0.0000 H   0  0  0  0  0  0  0  0  0  0  0  0
    7.3491    4.1871    0.0000 H   0  0  0  0  0  0  0  0  0  0  0  0
    3.0612   -1.7538    0.0000 H   0  0  0  0  0  0  0  0  0  0  0  0
    8.7520    4.9971    0.0000 H   0  0  0  0  0  0  0  0  0  0  0  0
    3.3659    0.6817    0.0000 H   0  0  0  0  0  0  0  0  0  0  0  0
    2.4905    0.6328    0.0000 H   0  0  0  0  0  0  0  0  0  0  0  0
    2.5394   -0.2427    0.0000 H   0  0  0  0  0  0  0  0  0  0  0  0
   10.5048    1.7225    0.0000 H   0  0  0  0  0  0  0  0  0  0  0  0
   10.5048    5.0317    0.0000 H   0  0  0  0  0  0  0  0  0  0  0  0
    4.2640   -3.2394    0.0000 H   0  0  0  0  0  0  0  0  0  0  0  0
   11.9538    2.5442    0.0000 H   0  0  0  0  0  0  0  0  0  0  0  0
   11.9538    4.2100    0.0000 H   0  0  0  0  0  0  0  0  0  0  0  0
    2.5893    4.0440    0.0000 H   0  0  0  0  0  0  0  0  0  0  0  0
    1.8074    4.4407    0.0000 H   0  0  0  0  0  0  0  0  0  0  0  0
    1.4107    3.6588    0.0000 H   0  0  0  0  0  0  0  0  0  0  0  0
    5.2671   -4.1298    0.0000 H   0  0  0  0  0  0  0  0  0  0  0  0
    5.8025   -4.7203    0.0000 H   0  0  0  0  0  0  0  0  0  0  0  0
    6.6492   -5.0021    0.0000 H   0  0  0  0  0  0  0  0  0  0  0  0
    7.4291   -4.6013    0.0000 H   0  0  0  0  0  0  0  0  0  0  0  0
    7.0283   -3.8215    0.0000 H   0  0  0  0  0  0  0  0  0  0  0  0
  1  2  2  0  0  0  0
  1  3  2  0  0  0  0
  1  6  1  0  0  0  0
  1 15  1  0  0  0  0
  4 19  1  0  0  0  0
  4 33  1  0  0  0  0
  5 32  2  0  0  0  0
  6 10  1  0  0  0  0
  6 13  1  0  0  0  0
  7 18  1  0  0  0  0
  7 24  1  0  0  0  0
  7 42  1  0  0  0  0
  8 14  1  0  0  0  0
  8 24  2  0  0  0  0
  9 24  1  0  0  0  0
  9 32  1  0  0  0  0
  9 49  1  0  0  0  0
 10 11  2  0  0  0  0
 10 17  1  0  0  0  0
 11 12  1  0  0  0  0
 11 16  1  0  0  0  0
 12 13  2  0  0  0  0
 12 14  1  0  0  0  0
 13 36  1  0  0  0  0
 14 18  2  0  0  0  0
 15 21  2  0  0  0  0
 15 22  1  0  0  0  0
 16 19  2  0  0  0  0
 16 37  1  0  0  0  0
 17 20  2  0  0  0  0
 17 38  1  0  0  0  0
 18 27  1  0  0  0  0
 19 20  1  0  0  0  0
 20 39  1  0  0  0  0
 21 23  1  0  0  0  0
 21 40  1  0  0  0  0
 22 26  2  0  0  0  0
 22 41  1  0  0  0  0
 23 25  1  0  0  0  0
 23 28  2  0  0  0  0
 25 26  1  0  0  0  0
 25 29  2  0  0  0  0
 26 43  1  0  0  0  0
 27 44  1  0  0  0  0
 27 45  1  0  0  0  0
 27 46  1  0  0  0  0
 28 30  1  0  0  0  0
 28 47  1  0  0  0  0
 29 31  1  0  0  0  0
 29 48  1  0  0  0  0
 30 31  2  0  0  0  0
 30 50  1  0  0  0  0
 31 51  1  0  0  0  0
 32 34  1  0  0  0  0
 33 52  1  0  0  0  0
 33 53  1  0  0  0  0
 33 54  1  0  0  0  0
 34 35  1  0  0  0  0
 34 55  1  0  0  0  0
 34 56  1  0  0  0  0
 35 57  1  0  0  0  0
 35 58  1  0  0  0  0
 35 59  1  0  0  0  0
M  END
> <PUBCHEM_COMPOUND_CID>
155557500

> <PUBCHEM_COMPOUND_CANONICALIZED>
1

> <PUBCHEM_CACTVS_COMPLEXITY>
864

> <PUBCHEM_CACTVS_HBOND_ACCEPTOR>
5

> <PUBCHEM_CACTVS_HBOND_DONOR>
2

> <PUBCHEM_CACTVS_ROTATABLE_BOND>
6

> <PUBCHEM_CACTVS_SUBSKEYS>
AAADceB7uABAAAAAAAAAAAAAAAAAAWLAAAAwYMAAAAAAAFjB/AAAHgQQQAAADAzB3gY/1/bJlAKoAzV3dHDCiD2xMqAJ2Tk+fJiMbuLE+ZuUMChs0RPI6Cew0PMOkEABgAASAAAggAMAACQAAAAAAAAAAA==

> <PUBCHEM_IUPAC_OPENEYE_NAME>
N-[4-[5-methoxy-1-(2-naphthylsulfonyl)indol-3-yl]-5-methyl-1H-imidazol-2-yl]propanamide

> <PUBCHEM_IUPAC_CAS_NAME>
N-[4-[5-methoxy-1-(2-naphthalenylsulfonyl)-3-indolyl]-5-methyl-1H-imidazol-2-yl]propanamide

> <PUBCHEM_IUPAC_NAME_MARKUP>
<I>N</I>-[4-(5-methoxy-1-naphthalen-2-ylsulfonylindol-3-yl)-5-methyl-1<I>H</I>-imidazol-2-yl]propanamide

> <PUBCHEM_IUPAC_NAME>
N-[4-(5-methoxy-1-naphthalen-2-ylsulfonylindol-3-yl)-5-methyl-1H-imidazol-2-yl]propanamide

> <PUBCHEM_IUPAC_SYSTEMATIC_NAME>
N-[4-(5-methoxy-1-naphthalen-2-ylsulfonyl-indol-3-yl)-5-methyl-1H-imidazol-2-yl]propanamide

> <PUBCHEM_IUPAC_TRADITIONAL_NAME>
N-[4-[5-methoxy-1-(2-naphthylsulfonyl)indol-3-yl]-5-methyl-1H-imidazol-2-yl]propionamide

> <PUBCHEM_IUPAC_INCHI>
InChI=1S/C26H24N4O4S/c1-4-24(31)28-26-27-16(2)25(29-26)22-15-30(23-12-10-19(34-3)14-21(22)23)35(32,33)20-11-9-17-7-5-6-8-18(17)13-20/h5-15H,4H2,1-3H3,(H2,27,28,29,31)

> <PUBCHEM_IUPAC_INCHIKEY>
FVEMRTJJWDWVSE-UHFFFAOYSA-N

> <PUBCHEM_XLOGP3_AA>
4.6

> <PUBCHEM_EXACT_MASS>
488.15182643

> <PUBCHEM_MOLECULAR_FORMULA>
C26H24N4O4S

> <PUBCHEM_MOLECULAR_WEIGHT>
488.6

> <PUBCHEM_OPENEYE_CAN_SMILES>
CCC(=O)NC1=NC(=C(N1)C)C2=CN(C3=C2C=C(C=C3)OC)S(=O)(=O)C4=CC5=CC=CC=C5C=C4

> <PUBCHEM_OPENEYE_ISO_SMILES>
CCC(=O)NC1=NC(=C(N1)C)C2=CN(C3=C2C=C(C=C3)OC)S(=O)(=O)C4=CC5=CC=CC=C5C=C4

> <PUBCHEM_CACTVS_TPSA>
115

> <PUBCHEM_MONOISOTOPIC_WEIGHT>
488.15182643

> <PUBCHEM_TOTAL_CHARGE>
0

> <PUBCHEM_HEAVY_ATOM_COUNT>
35

> <PUBCHEM_ATOM_DEF_STEREO_COUNT>
0

> <PUBCHEM_ATOM_UDEF_STEREO_COUNT>
0

> <PUBCHEM_BOND_DEF_STEREO_COUNT>
0

> <PUBCHEM_BOND_UDEF_STEREO_COUNT>
0

> <PUBCHEM_ISOTOPIC_ATOM_COUNT>
0

> <PUBCHEM_COMPONENT_COUNT>
1

> <PUBCHEM_CACTVS_TAUTO_COUNT>
-1

> <PUBCHEM_COORDINATE_TYPE>
1
5
255

> <PUBCHEM_BONDANNOTATIONS>
10  11  8
10  17  8
11  12  8
11  16  8
12  13  8
14  18  8
15  21  8
15  22  8
16  19  8
17  20  8
19  20  8
21  23  8
22  26  8
23  25  8
23  28  8
25  26  8
25  29  8
28  30  8
29  31  8
30  31  8
6  10  8
6  13  8
7  18  8
7  24  8
8  14  8
8  24  8

$$$$
