90656858
  -OEChem-09292322472D

265270  0     1  0  0  0  0  0999 V2000
    4.8479   10.3345    0.0000 S   0  0  0  0  0  0  0  0  0  0  0  0
   23.6787    9.4866    0.0000 Si  0  0  0  0  0  0  0  0  0  0  0  0
   22.6787    9.4866    0.0000 F   0  0  0  0  0  0  0  0  0  0  0  0
   22.8126    3.9866    0.0000 O   0  0  0  0  0  0  0  0  0  0  0  0
   27.1428   -5.5134    0.0000 O   0  0  0  0  0  0  0  0  0  0  0  0
   27.2851   -6.8680    0.0000 O   0  0  0  0  0  0  0  0  0  0  0  0
   26.2767   -5.0134    0.0000 O   0  0  0  0  0  0  0  0  0  0  0  0
   28.8599  -10.1114    0.0000 O   0  0  0  0  0  0  0  0  0  0  0  0
   21.0806    3.9866    0.0000 O   0  0  0  0  0  0  0  0  0  0  0  0
   23.6787   -2.5134    0.0000 O   0  0  0  0  0  0  0  0  0  0  0  0
   28.8748    0.4867    0.0000 O   0  0  0  0  0  0  0  0  0  0  0  0
   26.8384  -13.0970    0.0000 O   0  0  0  0  0  0  0  0  0  0  0  0
   25.6794  -11.8098    0.0000 O   0  0  0  0  0  0  0  0  0  0  0  0
   21.0806   -5.0134    0.0000 O   0  0  0  0  0  0  0  0  0  0  0  0
   18.4825   -2.5134    0.0000 O   0  0  0  0  0  0  0  0  0  0  0  0
   17.6165   -2.0134    0.0000 O   0  0  0  0  0  0  0  0  0  0  0  0
   15.0184   -0.5133    0.0000 O   0  0  0  0  0  0  0  0  0  0  0  0
    5.5202    8.2654    0.0000 O   0  0  0  0  0  0  0  0  0  0  0  0
    2.0000    8.2654    0.0000 O   0  0  0  0  0  0  0  0  0  0  0  0
    7.2242    3.9866    0.0000 O   0  0  0  0  0  0  0  0  0  0  0  0
    5.2100   13.7796    0.0000 O   0  0  0  0  0  0  0  0  0  0  0  0
   12.4203   -1.0134    0.0000 O   0  0  0  0  0  0  0  0  0  0  0  0
    3.6276   13.0751    0.0000 O   0  0  0  0  0  0  0  0  0  0  0  0
    8.0902    0.4867    0.0000 O   0  0  0  0  0  0  0  0  0  0  0  0
    9.8222   -0.5133    0.0000 O   0  0  0  0  0  0  0  0  0  0  0  0
   28.8748   -5.5134    0.0000 N   0  0  0  0  0  0  0  0  0  0  0  0
   22.8126    4.9866    0.0000 N   0  0  0  0  0  0  0  0  0  0  0  0
   28.4441   -8.1552    0.0000 N   0  0  0  0  0  0  0  0  0  0  0  0
   27.1428   -3.5134    0.0000 N   0  0  0  0  0  0  0  0  0  0  0  0
   24.5447   -4.0134    0.0000 N   0  0  0  0  0  0  0  0  0  0  0  0
   27.1657  -10.4716    0.0000 N   0  0  0  0  0  0  0  0  0  0  0  0
   21.9466    2.4866    0.0000 N   0  0  0  0  0  0  0  0  0  0  0  0
   24.3126   -9.5445    0.0000 N   0  0  0  0  0  0  0  0  0  0  0  0
   21.9466   -3.5134    0.0000 N   0  0  0  0  0  0  0  0  0  0  0  0
   29.4462  -13.1436    0.0000 N   0  0  0  0  0  0  0  0  0  0  0  0
   20.2146   -2.5134    0.0000 N   0  0  0  0  0  0  0  0  0  0  0  0
   22.6184   -9.9046    0.0000 N   0  0  0  0  0  0  0  0  0  0  0  0
   23.1536   -8.2573    0.0000 N   0  0  0  0  0  0  0  0  0  0  0  0
   28.3635  -14.3460    0.0000 N   0  0  0  0  0  0  0  0  0  0  0  0
   18.4825   -0.5133    0.0000 N   0  0  0  0  0  0  0  0  0  0  0  0
   18.5395   -5.6011    0.0000 N   0  0  0  0  0  0  0  0  0  0  0  0
    3.7601    7.9866    0.0000 N   0  0  0  0  0  0  0  0  0  0  0  0
   19.8485   -6.5522    0.0000 N   0  0  0  0  0  0  0  0  0  0  0  0
    6.3582    2.4866    0.0000 N   0  0  0  0  0  0  0  0  0  0  0  0
    6.0234   11.9525    0.0000 N   0  0  0  0  0  0  0  0  0  0  0  0
   23.6787   10.4867    0.0000 C   0  0  0  0  0  0  0  0  0  0  0  0
   24.6787    9.4866    0.0000 C   0  0  0  0  0  0  0  0  0  0  0  0
   23.6787    8.4866    0.0000 C   0  0  0  0  0  0  0  0  0  0  0  0
   23.6787   11.4867    0.0000 C   0  0  0  0  0  0  0  0  0  0  0  0
   24.4447   11.1294    0.0000 C   0  0  0  0  0  0  0  0  0  0  0  0
   22.6787   10.4867    0.0000 C   0  0  0  0  0  0  0  0  0  0  0  0
   25.6787    9.4866    0.0000 C   0  0  0  0  0  0  0  0  0  0  0  0
   24.6787   10.4867    0.0000 C   0  0  0  0  0  0  0  0  0  0  0  0
   25.3214    8.7206    0.0000 C   0  0  0  0  0  0  0  0  0  0  0  0
   22.8126    7.9866    0.0000 C   0  0  0  0  0  0  0  0  0  0  0  0
   24.5447    7.9866    0.0000 C   0  0  0  0  0  0  0  0  0  0  0  0
   22.8126    6.9866    0.0000 C   0  0  0  0  0  0  0  0  0  0  0  0
   24.5447    6.9866    0.0000 C   0  0  0  0  0  0  0  0  0  0  0  0
   23.6787    6.4866    0.0000 C   0  0  0  0  0  0  0  0  0  0  0  0
   23.6787    5.4866    0.0000 C   0  0  0  0  0  0  0  0  0  0  0  0
   28.9793   -6.5079    0.0000 C   0  0  1  0  0  0  0  0  0  0  0  0
   29.9575   -6.7158    0.0000 C   0  0  0  0  0  0  0  0  0  0  0  0
   30.4575   -5.8498    0.0000 C   0  0  0  0  0  0  0  0  0  0  0  0
   29.7884   -5.1066    0.0000 C   0  0  0  0  0  0  0  0  0  0  0  0
   28.0088   -5.0134    0.0000 C   0  0  0  0  0  0  0  0  0  0  0  0
   28.2362   -7.1770    0.0000 C   0  0  0  0  0  0  0  0  0  0  0  0
   28.0088   -4.0134    0.0000 C   0  0  2  0  0  0  0  0  0  0  0  0
   28.8748   -3.5134    0.0000 C   0  0  0  0  0  0  0  0  0  0  0  0
   27.7010   -8.8243    0.0000 C   0  0  1  0  0  0  0  0  0  0  0  0
   26.7499   -8.5153    0.0000 C   0  0  0  0  0  0  0  0  0  0  0  0
   25.4107   -3.5134    0.0000 C   0  0  2  0  0  0  0  0  0  0  0  0
   26.2767   -4.0134    0.0000 C   0  0  0  0  0  0  0  0  0  0  0  0
   25.4107   -2.5134    0.0000 C   0  0  2  0  0  0  0  0  0  0  0  0
   28.8748   -2.5134    0.0000 C   0  0  0  0  0  0  0  0  0  0  0  0
   27.9089   -9.8024    0.0000 C   0  0  0  0  0  0  0  0  0  0  0  0
   26.0068   -9.1844    0.0000 C   0  0  0  0  0  0  0  0  0  0  0  0
   26.2767   -2.0134    0.0000 C   0  0  0  0  0  0  0  0  0  0  0  0
   24.5447   -2.0134    0.0000 C   0  0  0  0  0  0  0  0  0  0  0  0
   25.0557   -8.8754    0.0000 C   0  0  0  0  0  0  0  0  0  0  0  0
   29.7408   -2.0134    0.0000 C   0  0  0  0  0  0  0  0  0  0  0  0
   28.0088   -2.0134    0.0000 C   0  0  0  0  0  0  0  0  0  0  0  0
   21.9466    3.4866    0.0000 C   0  0  0  0  0  0  0  0  0  0  0  0
   27.3736  -11.4497    0.0000 C   0  0  1  0  0  0  0  0  0  0  0  0
   26.2767   -1.0134    0.0000 C   0  0  0  0  0  0  0  0  0  0  0  0
   23.6787   -3.5134    0.0000 C   0  0  0  0  0  0  0  0  0  0  0  0
   29.7408   -1.0134    0.0000 C   0  0  0  0  0  0  0  0  0  0  0  0
   28.0088   -1.0134    0.0000 C   0  0  0  0  0  0  0  0  0  0  0  0
   22.8126   -4.0134    0.0000 C   0  0  2  0  0  0  0  0  0  0  0  0
   28.3247  -11.7587    0.0000 C   0  0  0  0  0  0  0  0  0  0  0  0
   28.8748   -0.5133    0.0000 C   0  0  0  0  0  0  0  0  0  0  0  0
   21.0806    1.9866    0.0000 C   0  0  0  0  0  0  0  0  0  0  0  0
   26.6305  -12.1188    0.0000 C   0  0  0  0  0  0  0  0  0  0  0  0
   21.0806    0.9867    0.0000 C   0  0  0  0  0  0  0  0  0  0  0  0
   22.8126   -5.0134    0.0000 C   0  0  0  0  0  0  0  0  0  0  0  0
   28.5326  -12.7369    0.0000 C   0  0  0  0  0  0  0  0  0  0  0  0
   20.2146    0.4867    0.0000 C   0  0  0  0  0  0  0  0  0  0  0  0
   23.3615   -9.2355    0.0000 C   0  0  0  0  0  0  0  0  0  0  0  0
   21.0806   -4.0134    0.0000 C   0  0  0  0  0  0  0  0  0  0  0  0
   20.2146   -3.5134    0.0000 C   0  0  2  0  0  0  0  0  0  0  0  0
   20.2146   -0.5133    0.0000 C   0  0  0  0  0  0  0  0  0  0  0  0
   19.3485   -1.0134    0.0000 C   0  0  1  0  0  0  0  0  0  0  0  0
   27.8635  -13.4800    0.0000 C   0  0  0  0  0  0  0  0  0  0  0  0
   19.3485   -4.0134    0.0000 C   0  0  0  0  0  0  0  0  0  0  0  0
   19.3485   -2.0134    0.0000 C   0  0  0  0  0  0  0  0  0  0  0  0
   29.3416  -14.1381    0.0000 C   0  0  0  0  0  0  0  0  0  0  0  0
   19.3485   -5.0134    0.0000 C   0  0  0  0  0  0  0  0  0  0  0  0
   17.6165   -1.0134    0.0000 C   0  0  0  0  0  0  0  0  0  0  0  0
   20.1575   -5.6011    0.0000 C   0  0  0  0  0  0  0  0  0  0  0  0
   16.7505   -0.5133    0.0000 C   0  0  0  0  0  0  0  0  0  0  0  0
    4.2601    9.5255    0.0000 C   0  0  3  0  0  0  0  0  0  0  0  0
    3.7601    6.9866    0.0000 C   0  0  0  0  0  0  0  0  0  0  0  0
    3.2601    9.5255    0.0000 C   0  0  0  0  0  0  0  0  0  0  0  0
    4.6261    6.4866    0.0000 C   0  0  0  0  0  0  0  0  0  0  0  0
   18.8485   -6.5522    0.0000 C   0  0  0  0  0  0  0  0  0  0  0  0
    4.5691    8.5744    0.0000 C   0  0  0  0  0  0  0  0  0  0  0  0
    2.9511    8.5744    0.0000 C   0  0  0  0  0  0  0  0  0  0  0  0
    4.6261    5.4866    0.0000 C   0  0  0  0  0  0  0  0  0  0  0  0
   15.8844   -1.0134    0.0000 C   0  0  0  0  0  0  0  0  0  0  0  0
    5.4921    4.9866    0.0000 C   0  0  0  0  0  0  0  0  0  0  0  0
    5.4921    3.9866    0.0000 C   0  0  0  0  0  0  0  0  0  0  0  0
    4.4411   11.2481    0.0000 C   0  0  0  0  0  0  0  0  0  0  0  0
    5.0289   12.0571    0.0000 C   0  0  1  0  0  0  0  0  0  0  0  0
    6.3582    3.4866    0.0000 C   0  0  0  0  0  0  0  0  0  0  0  0
   14.1524   -1.0134    0.0000 C   0  0  0  0  0  0  0  0  0  0  0  0
    4.6222   12.9706    0.0000 C   0  0  0  0  0  0  0  0  0  0  0  0
   13.2864   -0.5133    0.0000 C   0  0  0  0  0  0  0  0  0  0  0  0
    7.2242    1.9866    0.0000 C   0  0  0  0  0  0  0  0  0  0  0  0
    7.2242    0.9867    0.0000 C   0  0  0  0  0  0  0  0  0  0  0  0
   11.5543   -0.5133    0.0000 C   0  0  0  0  0  0  0  0  0  0  0  0
    8.0902   -0.5133    0.0000 C   0  0  0  0  0  0  0  0  0  0  0  0
   10.6883   -1.0134    0.0000 C   0  0  0  0  0  0  0  0  0  0  0  0
    8.9562   -1.0134    0.0000 C   0  0  0  0  0  0  0  0  0  0  0  0
   24.2987   11.4867    0.0000 H   0  0  0  0  0  0  0  0  0  0  0  0
   23.6787   12.1067    0.0000 H   0  0  0  0  0  0  0  0  0  0  0  0
   23.0587   11.4867    0.0000 H   0  0  0  0  0  0  0  0  0  0  0  0
   24.8432   10.6545    0.0000 H   0  0  0  0  0  0  0  0  0  0  0  0
   24.9196   11.5280    0.0000 H   0  0  0  0  0  0  0  0  0  0  0  0
   24.0462   11.6044    0.0000 H   0  0  0  0  0  0  0  0  0  0  0  0
   22.6787   11.1067    0.0000 H   0  0  0  0  0  0  0  0  0  0  0  0
   22.0587   10.4867    0.0000 H   0  0  0  0  0  0  0  0  0  0  0  0
   22.6787    9.8666    0.0000 H   0  0  0  0  0  0  0  0  0  0  0  0
   25.6787    8.8666    0.0000 H   0  0  0  0  0  0  0  0  0  0  0  0
   26.2987    9.4866    0.0000 H   0  0  0  0  0  0  0  0  0  0  0  0
   25.6787   10.1067    0.0000 H   0  0  0  0  0  0  0  0  0  0  0  0
   25.2987   10.4867    0.0000 H   0  0  0  0  0  0  0  0  0  0  0  0
   24.6787   11.1067    0.0000 H   0  0  0  0  0  0  0  0  0  0  0  0
   24.0587   10.4867    0.0000 H   0  0  0  0  0  0  0  0  0  0  0  0
   24.8465    8.3221    0.0000 H   0  0  0  0  0  0  0  0  0  0  0  0
   25.7200    8.2457    0.0000 H   0  0  0  0  0  0  0  0  0  0  0  0
   25.7964    9.1191    0.0000 H   0  0  0  0  0  0  0  0  0  0  0  0
   22.2757    8.2966    0.0000 H   0  0  0  0  0  0  0  0  0  0  0  0
   25.0816    8.2966    0.0000 H   0  0  0  0  0  0  0  0  0  0  0  0
   22.2757    6.6766    0.0000 H   0  0  0  0  0  0  0  0  0  0  0  0
   25.0816    6.6766    0.0000 H   0  0  0  0  0  0  0  0  0  0  0  0
   24.2156    5.1767    0.0000 H   0  0  0  0  0  0  0  0  0  0  0  0
   28.4005   -6.2857    0.0000 H   0  0  0  0  0  0  0  0  0  0  0  0
   29.7659   -7.3054    0.0000 H   0  0  0  0  0  0  0  0  0  0  0  0
   30.5239   -6.9680    0.0000 H   0  0  0  0  0  0  0  0  0  0  0  0
   30.9591   -6.2142    0.0000 H   0  0  0  0  0  0  0  0  0  0  0  0
   30.8723   -5.3890    0.0000 H   0  0  0  0  0  0  0  0  0  0  0  0
   30.2899   -4.7422    0.0000 H   0  0  0  0  0  0  0  0  0  0  0  0
   29.4784   -4.5697    0.0000 H   0  0  0  0  0  0  0  0  0  0  0  0
   28.0088   -3.3934    0.0000 H   0  0  0  0  0  0  0  0  0  0  0  0
   29.0338   -8.3467    0.0000 H   0  0  0  0  0  0  0  0  0  0  0  0
   29.0869   -4.0960    0.0000 H   0  0  0  0  0  0  0  0  0  0  0  0
   29.4854   -3.4057    0.0000 H   0  0  0  0  0  0  0  0  0  0  0  0
   27.5721   -8.2178    0.0000 H   0  0  0  0  0  0  0  0  0  0  0  0
   27.1428   -2.8934    0.0000 H   0  0  0  0  0  0  0  0  0  0  0  0
   27.0410   -7.9678    0.0000 H   0  0  0  0  0  0  0  0  0  0  0  0
   26.2613   -8.1336    0.0000 H   0  0  0  0  0  0  0  0  0  0  0  0
   25.9476   -3.8234    0.0000 H   0  0  0  0  0  0  0  0  0  0  0  0
   24.8738   -2.8234    0.0000 H   0  0  0  0  0  0  0  0  0  0  0  0
   25.7157   -9.7318    0.0000 H   0  0  0  0  0  0  0  0  0  0  0  0
   26.4953   -9.5661    0.0000 H   0  0  0  0  0  0  0  0  0  0  0  0
   26.4888   -2.5960    0.0000 H   0  0  0  0  0  0  0  0  0  0  0  0
   26.8873   -1.9057    0.0000 H   0  0  0  0  0  0  0  0  0  0  0  0
   24.5447   -4.6334    0.0000 H   0  0  0  0  0  0  0  0  0  0  0  0
   24.8547   -1.4764    0.0000 H   0  0  0  0  0  0  0  0  0  0  0  0
   24.0077   -1.7034    0.0000 H   0  0  0  0  0  0  0  0  0  0  0  0
   24.2347   -2.5503    0.0000 H   0  0  0  0  0  0  0  0  0  0  0  0
   25.3468   -8.3279    0.0000 H   0  0  0  0  0  0  0  0  0  0  0  0
   24.5671   -8.4937    0.0000 H   0  0  0  0  0  0  0  0  0  0  0  0
   30.2778   -2.3233    0.0000 H   0  0  0  0  0  0  0  0  0  0  0  0
   27.4718   -2.3234    0.0000 H   0  0  0  0  0  0  0  0  0  0  0  0
   26.5761  -10.2800    0.0000 H   0  0  0  0  0  0  0  0  0  0  0  0
   27.8344  -11.0348    0.0000 H   0  0  0  0  0  0  0  0  0  0  0  0
   26.8967   -1.0134    0.0000 H   0  0  0  0  0  0  0  0  0  0  0  0
   26.2767   -0.3933    0.0000 H   0  0  0  0  0  0  0  0  0  0  0  0
   25.6567   -1.0134    0.0000 H   0  0  0  0  0  0  0  0  0  0  0  0
   30.2778   -0.7033    0.0000 H   0  0  0  0  0  0  0  0  0  0  0  0
   27.4718   -0.7033    0.0000 H   0  0  0  0  0  0  0  0  0  0  0  0
   22.2757   -4.3233    0.0000 H   0  0  0  0  0  0  0  0  0  0  0  0
   22.4835    2.1766    0.0000 H   0  0  0  0  0  0  0  0  0  0  0  0
   28.9443  -11.7371    0.0000 H   0  0  0  0  0  0  0  0  0  0  0  0
   28.4110  -11.1448    0.0000 H   0  0  0  0  0  0  0  0  0  0  0  0
   24.4415  -10.1510    0.0000 H   0  0  0  0  0  0  0  0  0  0  0  0
   20.8685    2.5693    0.0000 H   0  0  0  0  0  0  0  0  0  0  0  0
   20.4700    1.8790    0.0000 H   0  0  0  0  0  0  0  0  0  0  0  0
   21.2926    0.4040    0.0000 H   0  0  0  0  0  0  0  0  0  0  0  0
   21.6912    1.0943    0.0000 H   0  0  0  0  0  0  0  0  0  0  0  0
   22.1926   -5.0134    0.0000 H   0  0  0  0  0  0  0  0  0  0  0  0
   22.8126   -5.6334    0.0000 H   0  0  0  0  0  0  0  0  0  0  0  0
   23.4326   -5.0134    0.0000 H   0  0  0  0  0  0  0  0  0  0  0  0
   21.9466   -2.8934    0.0000 H   0  0  0  0  0  0  0  0  0  0  0  0
   20.0025    1.0693    0.0000 H   0  0  0  0  0  0  0  0  0  0  0  0
   19.6040    0.3790    0.0000 H   0  0  0  0  0  0  0  0  0  0  0  0
   19.6776   -3.2034    0.0000 H   0  0  0  0  0  0  0  0  0  0  0  0
   20.4266   -1.0960    0.0000 H   0  0  0  0  0  0  0  0  0  0  0  0
   20.8251   -0.4057    0.0000 H   0  0  0  0  0  0  0  0  0  0  0  0
   29.4117    0.7967    0.0000 H   0  0  0  0  0  0  0  0  0  0  0  0
   18.8116   -1.3234    0.0000 H   0  0  0  0  0  0  0  0  0  0  0  0
   29.9831  -12.8336    0.0000 H   0  0  0  0  0  0  0  0  0  0  0  0
   27.2469  -13.4152    0.0000 H   0  0  0  0  0  0  0  0  0  0  0  0
   19.1365   -3.4307    0.0000 H   0  0  0  0  0  0  0  0  0  0  0  0
   18.7380   -4.1210    0.0000 H   0  0  0  0  0  0  0  0  0  0  0  0
   26.3777  -13.5118    0.0000 H   0  0  0  0  0  0  0  0  0  0  0  0
   20.7515   -2.2034    0.0000 H   0  0  0  0  0  0  0  0  0  0  0  0
   22.0287   -9.7130    0.0000 H   0  0  0  0  0  0  0  0  0  0  0  0
   22.7473  -10.5111    0.0000 H   0  0  0  0  0  0  0  0  0  0  0  0
   29.8024  -14.5530    0.0000 H   0  0  0  0  0  0  0  0  0  0  0  0
   22.5639   -8.0658    0.0000 H   0  0  0  0  0  0  0  0  0  0  0  0
   18.4825    0.1067    0.0000 H   0  0  0  0  0  0  0  0  0  0  0  0
   17.9499   -5.4095    0.0000 H   0  0  0  0  0  0  0  0  0  0  0  0
   20.7472   -5.4095    0.0000 H   0  0  0  0  0  0  0  0  0  0  0  0
   17.1490   -0.0384    0.0000 H   0  0  0  0  0  0  0  0  0  0  0  0
   16.3519   -0.0384    0.0000 H   0  0  0  0  0  0  0  0  0  0  0  0
    4.8724    9.4285    0.0000 H   0  0  0  0  0  0  0  0  0  0  0  0
    3.1495    7.0943    0.0000 H   0  0  0  0  0  0  0  0  0  0  0  0
    3.5480    6.4040    0.0000 H   0  0  0  0  0  0  0  0  0  0  0  0
    3.3249   10.1421    0.0000 H   0  0  0  0  0  0  0  0  0  0  0  0
    2.6536    9.6544    0.0000 H   0  0  0  0  0  0  0  0  0  0  0  0
    5.2367    6.3790    0.0000 H   0  0  0  0  0  0  0  0  0  0  0  0
    4.8382    7.0693    0.0000 H   0  0  0  0  0  0  0  0  0  0  0  0
   18.4841   -7.0538    0.0000 H   0  0  0  0  0  0  0  0  0  0  0  0
    4.0155    5.5943    0.0000 H   0  0  0  0  0  0  0  0  0  0  0  0
    4.4140    4.9040    0.0000 H   0  0  0  0  0  0  0  0  0  0  0  0
    6.1027    4.8790    0.0000 H   0  0  0  0  0  0  0  0  0  0  0  0
    5.7042    5.5693    0.0000 H   0  0  0  0  0  0  0  0  0  0  0  0
   15.4859   -1.4883    0.0000 H   0  0  0  0  0  0  0  0  0  0  0  0
   16.2830   -1.4883    0.0000 H   0  0  0  0  0  0  0  0  0  0  0  0
    4.8815    4.0943    0.0000 H   0  0  0  0  0  0  0  0  0  0  0  0
    5.2801    3.4040    0.0000 H   0  0  0  0  0  0  0  0  0  0  0  0
    4.0104   11.6940    0.0000 H   0  0  0  0  0  0  0  0  0  0  0  0
    3.9271   10.9014    0.0000 H   0  0  0  0  0  0  0  0  0  0  0  0
    5.2811   11.4907    0.0000 H   0  0  0  0  0  0  0  0  0  0  0  0
   13.7538   -1.4883    0.0000 H   0  0  0  0  0  0  0  0  0  0  0  0
   14.5509   -1.4883    0.0000 H   0  0  0  0  0  0  0  0  0  0  0  0
    5.8212    2.1766    0.0000 H   0  0  0  0  0  0  0  0  0  0  0  0
    6.3879   12.4541    0.0000 H   0  0  0  0  0  0  0  0  0  0  0  0
    6.2756   11.3861    0.0000 H   0  0  0  0  0  0  0  0  0  0  0  0
    7.8348    1.8790    0.0000 H   0  0  0  0  0  0  0  0  0  0  0  0
    7.4362    2.5693    0.0000 H   0  0  0  0  0  0  0  0  0  0  0  0
   13.6849   -0.0384    0.0000 H   0  0  0  0  0  0  0  0  0  0  0  0
   12.8878   -0.0384    0.0000 H   0  0  0  0  0  0  0  0  0  0  0  0
    6.6136    1.0943    0.0000 H   0  0  0  0  0  0  0  0  0  0  0  0
    7.0121    0.4040    0.0000 H   0  0  0  0  0  0  0  0  0  0  0  0
    4.9578   14.3460    0.0000 H   0  0  0  0  0  0  0  0  0  0  0  0
   11.9528   -0.0384    0.0000 H   0  0  0  0  0  0  0  0  0  0  0  0
   11.1558   -0.0384    0.0000 H   0  0  0  0  0  0  0  0  0  0  0  0
    7.4796   -0.4057    0.0000 H   0  0  0  0  0  0  0  0  0  0  0  0
    7.8782   -1.0960    0.0000 H   0  0  0  0  0  0  0  0  0  0  0  0
   10.2897   -1.4883    0.0000 H   0  0  0  0  0  0  0  0  0  0  0  0
   11.0868   -1.4883    0.0000 H   0  0  0  0  0  0  0  0  0  0  0  0
    8.5577   -1.4883    0.0000 H   0  0  0  0  0  0  0  0  0  0  0  0
    9.3547   -1.4883    0.0000 H   0  0  0  0  0  0  0  0  0  0  0  0
  1110  1  0  0  0  0
  1121  1  0  0  0  0
  2  3  1  0  0  0  0
  2 46  1  0  0  0  0
  2 47  1  0  0  0  0
  2 48  1  0  0  0  0
  4 27  1  0  0  0  0
  4 82  1  0  0  0  0
  5 65  2  0  0  0  0
  6 66  2  0  0  0  0
  7 72  2  0  0  0  0
  8 75  2  0  0  0  0
  9 82  2  0  0  0  0
 10 85  2  0  0  0  0
 11 90  1  0  0  0  0
 11210  1  0  0  0  0
 12 92  1  0  0  0  0
 12216  1  0  0  0  0
 13 92  2  0  0  0  0
 14 98  2  0  0  0  0
 15104  2  0  0  0  0
 16107  2  0  0  0  0
 17118  1  0  0  0  0
 17124  1  0  0  0  0
 18115  2  0  0  0  0
 19116  2  0  0  0  0
 20123  2  0  0  0  0
 21125  1  0  0  0  0
 21257  1  0  0  0  0
 22126  1  0  0  0  0
 22129  1  0  0  0  0
 23125  2  0  0  0  0
 24128  1  0  0  0  0
 24130  1  0  0  0  0
 25131  1  0  0  0  0
 25132  1  0  0  0  0
 26 61  1  0  0  0  0
 26 64  1  0  0  0  0
 26 65  1  0  0  0  0
 27 60  2  0  0  0  0
 28 66  1  0  0  0  0
 69 28  1  6  0  0  0
 28164  1  0  0  0  0
 67 29  1  1  0  0  0
 29 72  1  0  0  0  0
 29168  1  0  0  0  0
 71 30  1  1  0  0  0
 30 85  1  0  0  0  0
 30177  1  0  0  0  0
 31 75  1  0  0  0  0
 83 31  1  1  0  0  0
 31185  1  0  0  0  0
 32 82  1  0  0  0  0
 32 91  1  0  0  0  0
 32193  1  0  0  0  0
 33 79  1  0  0  0  0
 33 97  1  0  0  0  0
 33196  1  0  0  0  0
 88 34  1  6  0  0  0
 34 98  1  0  0  0  0
 34204  1  0  0  0  0
 35 95  1  0  0  0  0
 35105  1  0  0  0  0
 35212  1  0  0  0  0
 99 36  1  6  0  0  0
 36104  1  0  0  0  0
 36217  1  0  0  0  0
 37 97  1  0  0  0  0
 37218  1  0  0  0  0
 37219  1  0  0  0  0
 38 97  2  0  0  0  0
 38221  1  0  0  0  0
 39102  1  0  0  0  0
 39105  2  0  0  0  0
101 40  1  1  0  0  0
 40107  1  0  0  0  0
 40222  1  0  0  0  0
 41106  1  0  0  0  0
 41114  1  0  0  0  0
 41223  1  0  0  0  0
 42111  1  0  0  0  0
 42115  1  0  0  0  0
 42116  1  0  0  0  0
 43108  1  0  0  0  0
 43114  2  0  0  0  0
 44123  1  0  0  0  0
 44127  1  0  0  0  0
 44248  1  0  0  0  0
122 45  1  1  0  0  0
 45249  1  0  0  0  0
 45250  1  0  0  0  0
 46 49  1  0  0  0  0
 46 50  1  0  0  0  0
 46 51  1  0  0  0  0
 47 52  1  0  0  0  0
 47 53  1  0  0  0  0
 47 54  1  0  0  0  0
 48 55  2  0  0  0  0
 48 56  1  0  0  0  0
 49133  1  0  0  0  0
 49134  1  0  0  0  0
 49135  1  0  0  0  0
 50136  1  0  0  0  0
 50137  1  0  0  0  0
 50138  1  0  0  0  0
 51139  1  0  0  0  0
 51140  1  0  0  0  0
 51141  1  0  0  0  0
 52142  1  0  0  0  0
 52143  1  0  0  0  0
 52144  1  0  0  0  0
 53145  1  0  0  0  0
 53146  1  0  0  0  0
 53147  1  0  0  0  0
 54148  1  0  0  0  0
 54149  1  0  0  0  0
 54150  1  0  0  0  0
 55 57  1  0  0  0  0
 55151  1  0  0  0  0
 56 58  2  0  0  0  0
 56152  1  0  0  0  0
 57 59  2  0  0  0  0
 57153  1  0  0  0  0
 58 59  1  0  0  0  0
 58154  1  0  0  0  0
 59 60  1  0  0  0  0
 60155  1  0  0  0  0
 61 62  1  0  0  0  0
 61 66  1  1  0  0  0
 61156  1  0  0  0  0
 62 63  1  0  0  0  0
 62157  1  0  0  0  0
 62158  1  0  0  0  0
 63 64  1  0  0  0  0
 63159  1  0  0  0  0
 63160  1  0  0  0  0
 64161  1  0  0  0  0
 64162  1  0  0  0  0
 65 67  1  0  0  0  0
 67 68  1  0  0  0  0
 67163  1  0  0  0  0
 68 74  1  0  0  0  0
 68165  1  0  0  0  0
 68166  1  0  0  0  0
 69 70  1  0  0  0  0
 69 75  1  0  0  0  0
 69167  1  0  0  0  0
 70 76  1  0  0  0  0
 70169  1  0  0  0  0
 70170  1  0  0  0  0
 71 72  1  0  0  0  0
 71 73  1  0  0  0  0
 71171  1  0  0  0  0
 73 77  1  0  0  0  0
 73 78  1  1  0  0  0
 73172  1  0  0  0  0
 74 80  2  0  0  0  0
 74 81  1  0  0  0  0
 76 79  1  0  0  0  0
 76173  1  0  0  0  0
 76174  1  0  0  0  0
 77 84  1  0  0  0  0
 77175  1  0  0  0  0
 77176  1  0  0  0  0
 78178  1  0  0  0  0
 78179  1  0  0  0  0
 78180  1  0  0  0  0
 79181  1  0  0  0  0
 79182  1  0  0  0  0
 80 86  1  0  0  0  0
 80183  1  0  0  0  0
 81 87  2  0  0  0  0
 81184  1  0  0  0  0
 83 89  1  0  0  0  0
 83 92  1  0  0  0  0
 83186  1  0  0  0  0
 84187  1  0  0  0  0
 84188  1  0  0  0  0
 84189  1  0  0  0  0
 85 88  1  0  0  0  0
 86 90  2  0  0  0  0
 86190  1  0  0  0  0
 87 90  1  0  0  0  0
 87191  1  0  0  0  0
 88 94  1  0  0  0  0
 88192  1  0  0  0  0
 89 95  1  0  0  0  0
 89194  1  0  0  0  0
 89195  1  0  0  0  0
 91 93  1  0  0  0  0
 91197  1  0  0  0  0
 91198  1  0  0  0  0
 93 96  1  0  0  0  0
 93199  1  0  0  0  0
 93200  1  0  0  0  0
 94201  1  0  0  0  0
 94202  1  0  0  0  0
 94203  1  0  0  0  0
 95102  2  0  0  0  0
 96100  1  0  0  0  0
 96205  1  0  0  0  0
 96206  1  0  0  0  0
 98 99  1  0  0  0  0
 99103  1  0  0  0  0
 99207  1  0  0  0  0
100101  1  0  0  0  0
100208  1  0  0  0  0
100209  1  0  0  0  0
101104  1  0  0  0  0
101211  1  0  0  0  0
102213  1  0  0  0  0
103106  1  0  0  0  0
103214  1  0  0  0  0
103215  1  0  0  0  0
105220  1  0  0  0  0
106108  2  0  0  0  0
107109  1  0  0  0  0
108224  1  0  0  0  0
109118  1  0  0  0  0
109225  1  0  0  0  0
109226  1  0  0  0  0
110112  1  0  0  0  0
110115  1  0  0  0  0
110227  1  0  0  0  0
111113  1  0  0  0  0
111228  1  0  0  0  0
111229  1  0  0  0  0
112116  1  0  0  0  0
112230  1  0  0  0  0
112231  1  0  0  0  0
113117  1  0  0  0  0
113232  1  0  0  0  0
113233  1  0  0  0  0
114234  1  0  0  0  0
117119  1  0  0  0  0
117235  1  0  0  0  0
117236  1  0  0  0  0
118239  1  0  0  0  0
118240  1  0  0  0  0
119120  1  0  0  0  0
119237  1  0  0  0  0
119238  1  0  0  0  0
120123  1  0  0  0  0
120241  1  0  0  0  0
120242  1  0  0  0  0
121122  1  0  0  0  0
121243  1  0  0  0  0
121244  1  0  0  0  0
122125  1  0  0  0  0
122245  1  0  0  0  0
124126  1  0  0  0  0
124246  1  0  0  0  0
124247  1  0  0  0  0
126253  1  0  0  0  0
126254  1  0  0  0  0
127128  1  0  0  0  0
127251  1  0  0  0  0
127252  1  0  0  0  0
128255  1  0  0  0  0
128256  1  0  0  0  0
129131  1  0  0  0  0
129258  1  0  0  0  0
129259  1  0  0  0  0
130132  1  0  0  0  0
130260  1  0  0  0  0
130261  1  0  0  0  0
131262  1  0  0  0  0
131263  1  0  0  0  0
132264  1  0  0  0  0
132265  1  0  0  0  0
M  END
> <PUBCHEM_COMPOUND_CID>
90656858

> <PUBCHEM_COMPOUND_CANONICALIZED>
1

> <PUBCHEM_CACTVS_COMPLEXITY>
3730

> <PUBCHEM_CACTVS_HBOND_ACCEPTOR>
29

> <PUBCHEM_CACTVS_HBOND_DONOR>
18

> <PUBCHEM_CACTVS_ROTATABLE_BOND>
64

> <PUBCHEM_CACTVS_SUBSKEYS>
AAADcfB//whAAAAAAAAAAAAAAAAAAWLFiwAwYAAAAAAAAAAB9AAAHhQUCAAADSzl/ga/npfZlgmoAzX3fAACgC2xMrAJ2YG+eJmLbrbi2TOXcAAu9jP62Ce92aKOIAAAAAAAAABAAAAAAAAAAAAAAAAAAA==

> <PUBCHEM_IUPAC_OPENEYE_NAME>
(2S)-2-[[(2S)-2-[[(2S)-1-[(2S)-2-[[(2S,3S)-2-[[(2S)-2-[[(2S)-2-[[(2S)-2-[3-[2-[2-[2-[2-[6-[3-[(2R)-2-amino-2-carboxy-ethyl]sulfanyl-2,5-dioxo-pyrrolidin-1-yl]hexanoylamino]ethoxy]ethoxy]ethoxy]ethoxy]propanoylamino]-6-[[(E)-[4-[ditert-butyl(fluoro)silyl]phenyl]methyleneamino]oxycarbonylamino]hexanoyl]amino]-3-(1H-imidazol-5-yl)propanoyl]amino]propanoyl]amino]-3-methyl-pentanoyl]amino]-3-(4-hydroxyphenyl)propanoyl]pyrrolidine-2-carbonyl]amino]-5-guanidino-pentanoyl]amino]-3-(1H-imidazol-5-yl)propanoic acid

> <PUBCHEM_IUPAC_CAS_NAME>
(2S)-2-[[(2S)-2-[[[(2S)-1-[(2S)-2-[[(2S,3S)-2-[[(2S)-2-[[(2S)-2-[[(2S)-2-[[3-[2-[2-[2-[2-[[6-[3-[[(2R)-2-amino-2-carboxyethyl]thio]-2,5-dioxo-1-pyrrolidinyl]-1-oxohexyl]amino]ethoxy]ethoxy]ethoxy]ethoxy]-1-oxopropyl]amino]-6-[[[(E)-[4-[ditert-butyl(fluoro)silyl]phenyl]methylideneamino]oxy-oxomethyl]amino]-1-oxohexyl]amino]-3-(1H-imidazol-5-yl)-1-oxopropyl]amino]-1-oxopropyl]amino]-3-methyl-1-oxopentyl]amino]-3-(4-hydroxyphenyl)-1-oxopropyl]-2-pyrrolidinyl]-oxomethyl]amino]-5-carbamimidamido-1-oxopentyl]amino]-3-(1H-imidazol-5-yl)propanoic acid

> <PUBCHEM_IUPAC_NAME_MARKUP>
(2<I>S</I>)-2-[[(2<I>S</I>)-2-[[(2<I>S</I>)-1-[(2<I>S</I>)-2-[[(2<I>S</I>,3<I>S</I>)-2-[[(2<I>S</I>)-2-[[(2<I>S</I>)-2-[[(2<I>S</I>)-2-[3-[2-[2-[2-[2-[6-[3-[(2<I>R</I>)-2-amino-2-carboxyethyl]sulfanyl-2,5-dioxopyrrolidin-1-yl]hexanoylamino]ethoxy]ethoxy]ethoxy]ethoxy]propanoylamino]-6-[[(<I>E</I>)-[4-[di<I>tert</I>-butyl(fluoro)silyl]phenyl]methylideneamino]oxycarbonylamino]hexanoyl]amino]-3-(1<I>H</I>-imidazol-5-yl)propanoyl]amino]propanoyl]amino]-3-methylpentanoyl]amino]-3-(4-hydroxyphenyl)propanoyl]pyrrolidine-2-carbonyl]amino]-5-carbamimidamidopentanoyl]amino]-3-(1<I>H</I>-imidazol-5-yl)propanoic acid

> <PUBCHEM_IUPAC_NAME>
(2S)-2-[[(2S)-2-[[(2S)-1-[(2S)-2-[[(2S,3S)-2-[[(2S)-2-[[(2S)-2-[[(2S)-2-[3-[2-[2-[2-[2-[6-[3-[(2R)-2-amino-2-carboxyethyl]sulfanyl-2,5-dioxopyrrolidin-1-yl]hexanoylamino]ethoxy]ethoxy]ethoxy]ethoxy]propanoylamino]-6-[[(E)-[4-[ditert-butyl(fluoro)silyl]phenyl]methylideneamino]oxycarbonylamino]hexanoyl]amino]-3-(1H-imidazol-5-yl)propanoyl]amino]propanoyl]amino]-3-methylpentanoyl]amino]-3-(4-hydroxyphenyl)propanoyl]pyrrolidine-2-carbonyl]amino]-5-carbamimidamidopentanoyl]amino]-3-(1H-imidazol-5-yl)propanoic acid

> <PUBCHEM_IUPAC_SYSTEMATIC_NAME>
(2S)-2-[[(2S)-2-[[(2S)-1-[(2S)-2-[[(2S,3S)-2-[[(2S)-2-[[(2S)-2-[[(2S)-2-[3-[2-[2-[2-[2-[6-[3-[(2R)-2-azanyl-3-oxidanyl-3-oxidanylidene-propyl]sulfanyl-2,5-bis(oxidanylidene)pyrrolidin-1-yl]hexanoylamino]ethoxy]ethoxy]ethoxy]ethoxy]propanoylamino]-6-[[(E)-[4-[ditert-butyl(fluoranyl)silyl]phenyl]methylideneamino]oxycarbonylamino]hexanoyl]amino]-3-(1H-imidazol-5-yl)propanoyl]amino]propanoyl]amino]-3-methyl-pentanoyl]amino]-3-(4-hydroxyphenyl)propanoyl]pyrrolidin-2-yl]carbonylamino]-5-carbamimidamido-pentanoyl]amino]-3-(1H-imidazol-5-yl)propanoic acid

> <PUBCHEM_IUPAC_TRADITIONAL_NAME>
(2S)-2-[[(2S)-2-[[(2S)-1-[(2S)-2-[[(2S,3S)-2-[[(2S)-2-[[(2S)-2-[[(2S)-2-[3-[2-[2-[2-[2-[6-[3-[[(2R)-2-amino-2-carboxy-ethyl]thio]-2,5-diketo-pyrrolidino]hexanoylamino]ethoxy]ethoxy]ethoxy]ethoxy]propanoylamino]-6-[[(E)-[4-[ditert-butyl(fluoro)silyl]benzylidene]amino]oxycarbonylamino]hexanoyl]amino]-3-(1H-imidazol-5-yl)propanoyl]amino]propanoyl]amino]-3-methyl-pentanoyl]amino]-3-(4-hydroxyphenyl)propanoyl]prolyl]amino]-5-guanidino-pentanoyl]amino]-3-(1H-imidazol-5-yl)propionic acid

> <PUBCHEM_IUPAC_INCHI>
InChI=1S/C87H133FN20O22SSi/c1-10-54(2)73(79(118)104-66(44-56-22-26-60(109)27-23-56)80(119)107-35-17-20-68(107)78(117)102-64(19-16-32-95-84(90)91)76(115)105-67(83(123)124)46-59-50-93-53-98-59)106-74(113)55(3)100-77(116)65(45-58-49-92-52-97-58)103-75(114)63(18-13-14-31-96-85(125)130-99-48-57-24-28-61(29-25-57)132(88,86(4,5)6)87(7,8)9)101-71(111)30-36-126-38-40-128-42-43-129-41-39-127-37-33-94-70(110)21-12-11-15-34-108-72(112)47-69(81(108)120)131-51-62(89)82(121)122/h22-29,48-50,52-55,62-69,73,109H,10-21,30-47,51,89H2,1-9H3,(H,92,97)(H,93,98)(H,94,110)(H,96,125)(H,100,116)(H,101,111)(H,102,117)(H,103,114)(H,104,118)(H,105,115)(H,106,113)(H,121,122)(H,123,124)(H4,90,91,95)/b99-48+/t54-,55-,62-,63-,64-,65-,66-,67-,68-,69?,73-/m0/s1

> <PUBCHEM_IUPAC_INCHIKEY>
RAARPNBMXDXXGC-KQBRWWBASA-N

> <PUBCHEM_EXACT_MASS>
1888.93773182

> <PUBCHEM_MOLECULAR_FORMULA>
C87H133FN20O22SSi

> <PUBCHEM_MOLECULAR_WEIGHT>
1890.3

> <PUBCHEM_OPENEYE_CAN_SMILES>
CCC(C)C(C(=O)NC(CC1=CC=C(C=C1)O)C(=O)N2CCCC2C(=O)NC(CCCNC(=N)N)C(=O)NC(CC3=CN=CN3)C(=O)O)NC(=O)C(C)NC(=O)C(CC4=CN=CN4)NC(=O)C(CCCCNC(=O)ON=CC5=CC=C(C=C5)[Si](C(C)(C)C)(C(C)(C)C)F)NC(=O)CCOCCOCCOCCOCCNC(=O)CCCCCN6C(=O)CC(C6=O)SCC(C(=O)O)N

> <PUBCHEM_OPENEYE_ISO_SMILES>
CC[C@H](C)[C@@H](C(=O)N[C@@H](CC1=CC=C(C=C1)O)C(=O)N2CCC[C@H]2C(=O)N[C@@H](CCCNC(=N)N)C(=O)N[C@@H](CC3=CN=CN3)C(=O)O)NC(=O)[C@H](C)NC(=O)[C@H](CC4=CN=CN4)NC(=O)[C@H](CCCCNC(=O)O/N=C/C5=CC=C(C=C5)[Si](C(C)(C)C)(C(C)(C)C)F)NC(=O)CCOCCOCCOCCOCCNC(=O)CCCCCN6C(=O)CC(C6=O)SC[C@@H](C(=O)O)N

> <PUBCHEM_CACTVS_TPSA>
644

> <PUBCHEM_MONOISOTOPIC_WEIGHT>
1888.93773182

> <PUBCHEM_TOTAL_CHARGE>
0

> <PUBCHEM_HEAVY_ATOM_COUNT>
132

> <PUBCHEM_ATOM_DEF_STEREO_COUNT>
10

> <PUBCHEM_ATOM_UDEF_STEREO_COUNT>
1

> <PUBCHEM_BOND_DEF_STEREO_COUNT>
1

> <PUBCHEM_BOND_UDEF_STEREO_COUNT>
0

> <PUBCHEM_ISOTOPIC_ATOM_COUNT>
0

> <PUBCHEM_COMPONENT_COUNT>
1

> <PUBCHEM_CACTVS_TAUTO_COUNT>
-1

> <PUBCHEM_COORDINATE_TYPE>
1
5
255

> <PUBCHEM_BONDANNOTATIONS>
110  1  3
106  108  8
69  28  6
67  29  5
71  30  5
83  31  5
88  34  6
35  105  8
35  95  8
99  36  6
39  102  8
39  105  8
101  40  5
41  106  8
41  114  8
43  108  8
43  114  8
122  45  5
48  55  8
48  56  8
55  57  8
56  58  8
57  59  8
58  59  8
61  66  5
73  78  5
74  80  8
74  81  8
80  86  8
81  87  8
86  90  8
87  90  8
95  102  8

$$$$
