127052779
  -OEChem-09292322372D

 51 53  0     0  0  0  0  0  0999 V2000
   11.2629    0.6200    0.0000 Cl  0  0  0  0  0  0  0  0  0  0  0  0
    5.1315    9.7025    0.0000 Cl  0  0  0  0  0  0  0  0  0  0  0  0
    3.2152    6.8888    0.0000 S   0  0  0  0  0  0  0  0  0  0  0  0
    7.7988    1.6200    0.0000 O   0  0  0  0  0  0  0  0  0  0  0  0
    6.7988    4.3520    0.0000 N   0  0  0  0  0  0  0  0  0  0  0  0
    3.2152    5.2794    0.0000 N   0  0  0  0  0  0  0  0  0  0  0  0
    7.7988    2.6200    0.0000 C   0  0  0  0  0  0  0  0  0  0  0  0
    6.7988    2.6200    0.0000 C   0  0  0  0  0  0  0  0  0  0  0  0
    8.2988    3.4860    0.0000 C   0  0  0  0  0  0  0  0  0  0  0  0
    6.2988    3.4860    0.0000 C   0  0  0  0  0  0  0  0  0  0  0  0
    7.7988    4.3520    0.0000 C   0  0  0  0  0  0  0  0  0  0  0  0
    6.2988    5.2181    0.0000 C   0  0  0  0  0  0  0  0  0  0  0  0
    8.6648    2.1200    0.0000 C   0  0  0  0  0  0  0  0  0  0  0  0
    5.2988    5.2181    0.0000 C   0  0  0  0  0  0  0  0  0  0  0  0
    9.5309    2.6200    0.0000 C   0  0  0  0  0  0  0  0  0  0  0  0
    8.6648    1.1200    0.0000 C   0  0  0  0  0  0  0  0  0  0  0  0
    4.7988    6.0841    0.0000 C   0  0  0  0  0  0  0  0  0  0  0  0
   10.3969    2.1200    0.0000 C   0  0  0  0  0  0  0  0  0  0  0  0
    9.5309    0.6200    0.0000 C   0  0  0  0  0  0  0  0  0  0  0  0
    3.7988    6.0841    0.0000 C   0  0  0  0  0  0  0  0  0  0  0  0
   10.3969    1.1200    0.0000 C   0  0  0  0  0  0  0  0  0  0  0  0
    2.2690    6.5841    0.0000 C   0  0  0  0  0  0  0  0  0  0  0  0
    2.2690    5.5841    0.0000 C   0  0  0  0  0  0  0  0  0  0  0  0
    1.4030    7.0841    0.0000 C   0  0  0  0  0  0  0  0  0  0  0  0
    1.4030    5.0841    0.0000 C   0  0  0  0  0  0  0  0  0  0  0  0
    0.5369    6.5841    0.0000 C   0  0  0  0  0  0  0  0  0  0  0  0
    0.5369    5.5841    0.0000 C   0  0  0  0  0  0  0  0  0  0  0  0
    6.2162    2.4080    0.0000 H   0  0  0  0  0  0  0  0  0  0  0  0
    6.9065    2.0094    0.0000 H   0  0  0  0  0  0  0  0  0  0  0  0
    8.7738    3.0875    0.0000 H   0  0  0  0  0  0  0  0  0  0  0  0
    8.7738    3.8846    0.0000 H   0  0  0  0  0  0  0  0  0  0  0  0
    5.8239    3.8846    0.0000 H   0  0  0  0  0  0  0  0  0  0  0  0
    5.8239    3.0875    0.0000 H   0  0  0  0  0  0  0  0  0  0  0  0
    8.3814    4.5641    0.0000 H   0  0  0  0  0  0  0  0  0  0  0  0
    7.6912    4.9626    0.0000 H   0  0  0  0  0  0  0  0  0  0  0  0
    6.8814    5.4301    0.0000 H   0  0  0  0  0  0  0  0  0  0  0  0
    6.1912    5.8287    0.0000 H   0  0  0  0  0  0  0  0  0  0  0  0
    4.7162    5.0060    0.0000 H   0  0  0  0  0  0  0  0  0  0  0  0
    5.4065    4.6075    0.0000 H   0  0  0  0  0  0  0  0  0  0  0  0
    7.2619    1.3100    0.0000 H   0  0  0  0  0  0  0  0  0  0  0  0
    9.5309    3.2400    0.0000 H   0  0  0  0  0  0  0  0  0  0  0  0
    8.1279    0.8100    0.0000 H   0  0  0  0  0  0  0  0  0  0  0  0
    5.3814    6.2962    0.0000 H   0  0  0  0  0  0  0  0  0  0  0  0
    4.6912    6.6947    0.0000 H   0  0  0  0  0  0  0  0  0  0  0  0
   10.9338    2.4300    0.0000 H   0  0  0  0  0  0  0  0  0  0  0  0
    9.5309    0.0000    0.0000 H   0  0  0  0  0  0  0  0  0  0  0  0
    1.4030    7.7041    0.0000 H   0  0  0  0  0  0  0  0  0  0  0  0
    1.4030    4.4641    0.0000 H   0  0  0  0  0  0  0  0  0  0  0  0
    0.0000    6.8941    0.0000 H   0  0  0  0  0  0  0  0  0  0  0  0
    0.0000    5.2741    0.0000 H   0  0  0  0  0  0  0  0  0  0  0  0
    6.1315    9.7025    0.0000 H   0  0  0  0  0  0  0  0  0  0  0  0
  1 21  1  0  0  0  0
  2 51  1  0  0  0  0
  3 20  1  0  0  0  0
  3 22  1  0  0  0  0
  4  7  1  0  0  0  0
  4 40  1  0  0  0  0
  5 10  1  0  0  0  0
  5 11  1  0  0  0  0
  5 12  1  0  0  0  0
  6 20  2  0  0  0  0
  6 23  1  0  0  0  0
  7  8  1  0  0  0  0
  7  9  1  0  0  0  0
  7 13  1  0  0  0  0
  8 10  1  0  0  0  0
  8 28  1  0  0  0  0
  8 29  1  0  0  0  0
  9 11  1  0  0  0  0
  9 30  1  0  0  0  0
  9 31  1  0  0  0  0
 10 32  1  0  0  0  0
 10 33  1  0  0  0  0
 11 34  1  0  0  0  0
 11 35  1  0  0  0  0
 12 14  1  0  0  0  0
 12 36  1  0  0  0  0
 12 37  1  0  0  0  0
 13 15  2  0  0  0  0
 13 16  1  0  0  0  0
 14 17  1  0  0  0  0
 14 38  1  0  0  0  0
 14 39  1  0  0  0  0
 15 18  1  0  0  0  0
 15 41  1  0  0  0  0
 16 19  2  0  0  0  0
 16 42  1  0  0  0  0
 17 20  1  0  0  0  0
 17 43  1  0  0  0  0
 17 44  1  0  0  0  0
 18 21  2  0  0  0  0
 18 45  1  0  0  0  0
 19 21  1  0  0  0  0
 19 46  1  0  0  0  0
 22 23  1  0  0  0  0
 22 24  2  0  0  0  0
 23 25  2  0  0  0  0
 24 26  1  0  0  0  0
 24 47  1  0  0  0  0
 25 27  1  0  0  0  0
 25 48  1  0  0  0  0
 26 27  2  0  0  0  0
 26 49  1  0  0  0  0
 27 50  1  0  0  0  0
M  END
> <PUBCHEM_COMPOUND_CID>
127052779

> <PUBCHEM_COMPOUND_CANONICALIZED>
1

> <PUBCHEM_CACTVS_COMPLEXITY>
449

> <PUBCHEM_CACTVS_HBOND_ACCEPTOR>
4

> <PUBCHEM_CACTVS_HBOND_DONOR>
2

> <PUBCHEM_CACTVS_ROTATABLE_BOND>
5

> <PUBCHEM_CACTVS_SUBSKEYS>
AAADceB7IABGAAAAAAAAAAAAAAAAAWAAAAA8YIAAAAAAAFgB9AAAHgYACAAADE7B3iQwwbMIEgikAyRiRACD8KBhDzhImDw4bpgIJqLhk5GEcAhmwAHo2AeQwOAOhAAAAAAAAQAIAAAAAAACAAAAAAAAAA==

> <PUBCHEM_IUPAC_OPENEYE_NAME>
1-[3-(1,3-benzothiazol-2-yl)propyl]-4-(4-chlorophenyl)piperidin-4-ol;hydrochloride

> <PUBCHEM_IUPAC_CAS_NAME>
1-[3-(1,3-benzothiazol-2-yl)propyl]-4-(4-chlorophenyl)-4-piperidinol;hydrochloride

> <PUBCHEM_IUPAC_NAME_MARKUP>
1-[3-(1,3-benzothiazol-2-yl)propyl]-4-(4-chlorophenyl)piperidin-4-ol;hydrochloride

> <PUBCHEM_IUPAC_NAME>
1-[3-(1,3-benzothiazol-2-yl)propyl]-4-(4-chlorophenyl)piperidin-4-ol;hydrochloride

> <PUBCHEM_IUPAC_SYSTEMATIC_NAME>
1-[3-(1,3-benzothiazol-2-yl)propyl]-4-(4-chlorophenyl)piperidin-4-ol;hydrochloride

> <PUBCHEM_IUPAC_TRADITIONAL_NAME>
1-[3-(1,3-benzothiazol-2-yl)propyl]-4-(4-chlorophenyl)piperidin-4-ol;hydrochloride

> <PUBCHEM_IUPAC_INCHI>
InChI=1S/C21H23ClN2OS.ClH/c22-17-9-7-16(8-10-17)21(25)11-14-24(15-12-21)13-3-6-20-23-18-4-1-2-5-19(18)26-20;/h1-2,4-5,7-10,25H,3,6,11-15H2;1H

> <PUBCHEM_IUPAC_INCHIKEY>
ZFSWQSIIELRIID-UHFFFAOYSA-N

> <PUBCHEM_EXACT_MASS>
422.0986400

> <PUBCHEM_MOLECULAR_FORMULA>
C21H24Cl2N2OS

> <PUBCHEM_MOLECULAR_WEIGHT>
423.4

> <PUBCHEM_OPENEYE_CAN_SMILES>
C1CN(CCC1(C2=CC=C(C=C2)Cl)O)CCCC3=NC4=CC=CC=C4S3.Cl

> <PUBCHEM_OPENEYE_ISO_SMILES>
C1CN(CCC1(C2=CC=C(C=C2)Cl)O)CCCC3=NC4=CC=CC=C4S3.Cl

> <PUBCHEM_CACTVS_TPSA>
64.6

> <PUBCHEM_MONOISOTOPIC_WEIGHT>
422.0986400

> <PUBCHEM_TOTAL_CHARGE>
0

> <PUBCHEM_HEAVY_ATOM_COUNT>
27

> <PUBCHEM_ATOM_DEF_STEREO_COUNT>
0

> <PUBCHEM_ATOM_UDEF_STEREO_COUNT>
0

> <PUBCHEM_BOND_DEF_STEREO_COUNT>
0

> <PUBCHEM_BOND_UDEF_STEREO_COUNT>
0

> <PUBCHEM_ISOTOPIC_ATOM_COUNT>
0

> <PUBCHEM_COMPONENT_COUNT>
2

> <PUBCHEM_CACTVS_TAUTO_COUNT>
-1

> <PUBCHEM_COORDINATE_TYPE>
1
5
255

> <PUBCHEM_BONDANNOTATIONS>
13  15  8
13  16  8
15  18  8
16  19  8
18  21  8
19  21  8
22  23  8
22  24  8
23  25  8
24  26  8
25  27  8
26  27  8
3  20  8
3  22  8
6  20  8
6  23  8

$$$$
