134133967
  -OEChem-09292322382D

 47 49  0     1  0  0  0  0  0999 V2000
    1.4534    1.5663    0.0000 Cl  0  0  0  0  0  0  0  0  0  0  0  0
    5.5464    7.2692    0.0000 Cl  0  0  0  0  0  0  0  0  0  0  0  0
    9.3057    3.0060    0.0000 S   0  0  0  0  0  0  0  0  0  0  0  0
    4.0678    3.1009    0.0000 N   0  0  3  0  0  0  0  0  0  0  0  0
    8.5010    1.6122    0.0000 N   0  0  0  0  0  0  0  0  0  0  0  0
    4.0678    4.1009    0.0000 C   0  0  0  0  0  0  0  0  0  0  0  0
    3.2018    2.6009    0.0000 C   0  0  0  0  0  0  0  0  0  0  0  0
    4.9338    2.6009    0.0000 C   0  0  0  0  0  0  0  0  0  0  0  0
    3.2018    4.6009    0.0000 C   0  0  0  0  0  0  0  0  0  0  0  0
    2.3358    3.1009    0.0000 C   0  0  0  0  0  0  0  0  0  0  0  0
    2.3358    4.1009    0.0000 C   0  0  0  0  0  0  0  0  0  0  0  0
    5.7998    3.1009    0.0000 C   0  0  0  0  0  0  0  0  0  0  0  0
    6.6659    2.6009    0.0000 C   0  0  0  0  0  0  0  0  0  0  0  0
    7.5319    3.1009    0.0000 C   0  0  0  0  0  0  0  0  0  0  0  0
    1.4418    2.5662    0.0000 C   0  0  0  0  0  0  0  0  0  0  0  0
    1.4418    4.6356    0.0000 C   0  0  0  0  0  0  0  0  0  0  0  0
    0.5357    3.0801    0.0000 C   0  0  0  0  0  0  0  0  0  0  0  0
    0.5357    4.1217    0.0000 C   0  0  0  0  0  0  0  0  0  0  0  0
    8.3979    2.6009    0.0000 C   0  0  0  0  0  0  0  0  0  0  0  0
    9.9728    2.2690    0.0000 C   0  0  0  0  0  0  0  0  0  0  0  0
    9.4728    1.4030    0.0000 C   0  0  0  0  0  0  0  0  0  0  0  0
   10.9728    2.2690    0.0000 C   0  0  0  0  0  0  0  0  0  0  0  0
    9.9728    0.5369    0.0000 C   0  0  0  0  0  0  0  0  0  0  0  0
   11.4728    1.4030    0.0000 C   0  0  0  0  0  0  0  0  0  0  0  0
   10.9728    0.5369    0.0000 C   0  0  0  0  0  0  0  0  0  0  0  0
    4.6784    3.9932    0.0000 H   0  0  0  0  0  0  0  0  0  0  0  0
    4.2798    4.6835    0.0000 H   0  0  0  0  0  0  0  0  0  0  0  0
    2.8032    2.1259    0.0000 H   0  0  0  0  0  0  0  0  0  0  0  0
    3.6003    2.1259    0.0000 H   0  0  0  0  0  0  0  0  0  0  0  0
    4.5353    2.1259    0.0000 H   0  0  0  0  0  0  0  0  0  0  0  0
    5.3324    2.1259    0.0000 H   0  0  0  0  0  0  0  0  0  0  0  0
    3.6003    5.0758    0.0000 H   0  0  0  0  0  0  0  0  0  0  0  0
    2.8032    5.0758    0.0000 H   0  0  0  0  0  0  0  0  0  0  0  0
    6.1984    3.5758    0.0000 H   0  0  0  0  0  0  0  0  0  0  0  0
    5.4013    3.5758    0.0000 H   0  0  0  0  0  0  0  0  0  0  0  0
    6.2673    2.1259    0.0000 H   0  0  0  0  0  0  0  0  0  0  0  0
    7.0644    2.1259    0.0000 H   0  0  0  0  0  0  0  0  0  0  0  0
    7.9304    3.5758    0.0000 H   0  0  0  0  0  0  0  0  0  0  0  0
    7.1334    3.5758    0.0000 H   0  0  0  0  0  0  0  0  0  0  0  0
    1.4490    5.2555    0.0000 H   0  0  0  0  0  0  0  0  0  0  0  0
    0.0000    2.7680    0.0000 H   0  0  0  0  0  0  0  0  0  0  0  0
    0.0000    4.4338    0.0000 H   0  0  0  0  0  0  0  0  0  0  0  0
   11.2828    2.8059    0.0000 H   0  0  0  0  0  0  0  0  0  0  0  0
    9.6628    0.0000    0.0000 H   0  0  0  0  0  0  0  0  0  0  0  0
   12.0928    1.4030    0.0000 H   0  0  0  0  0  0  0  0  0  0  0  0
   11.2828    0.0000    0.0000 H   0  0  0  0  0  0  0  0  0  0  0  0
    6.5464    7.2692    0.0000 H   0  0  0  0  0  0  0  0  0  0  0  0
  1 15  1  0  0  0  0
  2 47  1  0  0  0  0
  3 19  1  0  0  0  0
  3 20  1  0  0  0  0
  4  6  1  0  0  0  0
  4  7  1  0  0  0  0
  4  8  1  0  0  0  0
  5 19  2  0  0  0  0
  5 21  1  0  0  0  0
  6  9  1  0  0  0  0
  6 26  1  0  0  0  0
  6 27  1  0  0  0  0
  7 10  1  0  0  0  0
  7 28  1  0  0  0  0
  7 29  1  0  0  0  0
  8 12  1  0  0  0  0
  8 30  1  0  0  0  0
  8 31  1  0  0  0  0
  9 11  1  0  0  0  0
  9 32  1  0  0  0  0
  9 33  1  0  0  0  0
 10 11  2  0  0  0  0
 10 15  1  0  0  0  0
 11 16  1  0  0  0  0
 12 13  1  0  0  0  0
 12 34  1  0  0  0  0
 12 35  1  0  0  0  0
 13 14  1  0  0  0  0
 13 36  1  0  0  0  0
 13 37  1  0  0  0  0
 14 19  1  0  0  0  0
 14 38  1  0  0  0  0
 14 39  1  0  0  0  0
 15 17  2  0  0  0  0
 16 18  2  0  0  0  0
 16 40  1  0  0  0  0
 17 18  1  0  0  0  0
 17 41  1  0  0  0  0
 18 42  1  0  0  0  0
 20 21  1  0  0  0  0
 20 22  2  0  0  0  0
 21 23  2  0  0  0  0
 22 24  1  0  0  0  0
 22 43  1  0  0  0  0
 23 25  1  0  0  0  0
 23 44  1  0  0  0  0
 24 25  2  0  0  0  0
 24 45  1  0  0  0  0
 25 46  1  0  0  0  0
M  END
> <PUBCHEM_COMPOUND_CID>
134133967

> <PUBCHEM_COMPOUND_CANONICALIZED>
1

> <PUBCHEM_CACTVS_COMPLEXITY>
407

> <PUBCHEM_CACTVS_HBOND_ACCEPTOR>
3

> <PUBCHEM_CACTVS_HBOND_DONOR>
1

> <PUBCHEM_CACTVS_ROTATABLE_BOND>
5

> <PUBCHEM_CACTVS_SUBSKEYS>
AAADceB7AABGAAAAAAAAAAAAAAAAAWAAAAA8YIAAAAAAAFix9AAAHAYAAAAADArBXiQwwbMIEAikAyRiRACD8KBhDzhImDw4ZpgIIKLhk5GEIAhggADoyAcQgIAOgAAAIAARAQAAAABAACICAAAAAAAAAA==

> <PUBCHEM_IUPAC_OPENEYE_NAME>
2-[4-(8-chloro-3,4-dihydro-1H-isoquinolin-2-yl)butyl]-1,3-benzothiazole;hydrochloride

> <PUBCHEM_IUPAC_CAS_NAME>
2-[4-(8-chloro-3,4-dihydro-1H-isoquinolin-2-yl)butyl]-1,3-benzothiazole;hydrochloride

> <PUBCHEM_IUPAC_NAME_MARKUP>
2-[4-(8-chloro-3,4-dihydro-1<I>H</I>-isoquinolin-2-yl)butyl]-1,3-benzothiazole;hydrochloride

> <PUBCHEM_IUPAC_NAME>
2-[4-(8-chloro-3,4-dihydro-1H-isoquinolin-2-yl)butyl]-1,3-benzothiazole;hydrochloride

> <PUBCHEM_IUPAC_SYSTEMATIC_NAME>
2-[4-(8-chloranyl-3,4-dihydro-1H-isoquinolin-2-yl)butyl]-1,3-benzothiazole;hydrochloride

> <PUBCHEM_IUPAC_TRADITIONAL_NAME>
2-[4-(8-chloro-3,4-dihydro-1H-isoquinolin-2-yl)butyl]-1,3-benzothiazole;hydrochloride

> <PUBCHEM_IUPAC_INCHI>
InChI=1S/C20H21ClN2S.ClH/c21-17-7-5-6-15-11-13-23(14-16(15)17)12-4-3-10-20-22-18-8-1-2-9-19(18)24-20;/h1-2,5-9H,3-4,10-14H2;1H

> <PUBCHEM_IUPAC_INCHIKEY>
LVPRBIUAEJRMDZ-UHFFFAOYSA-N

> <PUBCHEM_EXACT_MASS>
392.0880753

> <PUBCHEM_MOLECULAR_FORMULA>
C20H22Cl2N2S

> <PUBCHEM_MOLECULAR_WEIGHT>
393.4

> <PUBCHEM_OPENEYE_CAN_SMILES>
C1CN(CC2=C1C=CC=C2Cl)CCCCC3=NC4=CC=CC=C4S3.Cl

> <PUBCHEM_OPENEYE_ISO_SMILES>
C1CN(CC2=C1C=CC=C2Cl)CCCCC3=NC4=CC=CC=C4S3.Cl

> <PUBCHEM_CACTVS_TPSA>
44.4

> <PUBCHEM_MONOISOTOPIC_WEIGHT>
392.0880753

> <PUBCHEM_TOTAL_CHARGE>
0

> <PUBCHEM_HEAVY_ATOM_COUNT>
25

> <PUBCHEM_ATOM_DEF_STEREO_COUNT>
0

> <PUBCHEM_ATOM_UDEF_STEREO_COUNT>
0

> <PUBCHEM_BOND_DEF_STEREO_COUNT>
0

> <PUBCHEM_BOND_UDEF_STEREO_COUNT>
0

> <PUBCHEM_ISOTOPIC_ATOM_COUNT>
0

> <PUBCHEM_COMPONENT_COUNT>
2

> <PUBCHEM_CACTVS_TAUTO_COUNT>
-1

> <PUBCHEM_COORDINATE_TYPE>
1
5
255

> <PUBCHEM_BONDANNOTATIONS>
10  11  8
10  15  8
11  16  8
15  17  8
16  18  8
17  18  8
20  21  8
20  22  8
21  23  8
22  24  8
23  25  8
24  25  8
3  19  8
3  20  8
5  19  8
5  21  8

$$$$
