44554393
  -OEChem-09292322312D

 60 64  0     0  0  0  0  0  0999 V2000
    7.9933    0.5006    0.0000 S   0  0  0  0  0  0  0  0  0  0  0  0
    6.9933    0.5006    0.0000 O   0  0  0  0  0  0  0  0  0  0  0  0
    8.9933    0.5006    0.0000 O   0  0  0  0  0  0  0  0  0  0  0  0
    4.5637   -1.4149    0.0000 N   0  0  0  0  0  0  0  0  0  0  0  0
    8.4933   -2.0293    0.0000 N   0  0  0  0  0  0  0  0  0  0  0  0
    2.6067   -1.0025    0.0000 N   0  0  0  0  0  0  0  0  0  0  0  0
    8.7980   -1.0830    0.0000 N   0  0  0  0  0  0  0  0  0  0  0  0
    7.1885   -1.0830    0.0000 C   0  0  0  0  0  0  0  0  0  0  0  0
    4.2530   -0.4644    0.0000 C   0  0  0  0  0  0  0  0  0  0  0  0
    3.8958   -2.1592    0.0000 C   0  0  0  0  0  0  0  0  0  0  0  0
    7.4992   -2.0336    0.0000 C   0  0  0  0  0  0  0  0  0  0  0  0
    5.5422   -1.6211    0.0000 C   0  0  0  0  0  0  0  0  0  0  0  0
    7.9933   -0.4994    0.0000 C   0  0  0  0  0  0  0  0  0  0  0  0
    9.0838   -2.8362    0.0000 C   0  0  0  0  0  0  0  0  0  0  0  0
    3.2745   -0.2582    0.0000 C   0  0  0  0  0  0  0  0  0  0  0  0
    2.9173   -1.9530    0.0000 C   0  0  0  0  0  0  0  0  0  0  0  0
    6.2100   -0.8768    0.0000 C   0  0  0  0  0  0  0  0  0  0  0  0
   10.0780   -2.7283    0.0000 C   0  0  0  0  0  0  0  0  0  0  0  0
    6.8314   -2.7778    0.0000 C   0  0  0  0  0  0  0  0  0  0  0  0
    5.8528   -2.5716    0.0000 C   0  0  0  0  0  0  0  0  0  0  0  0
    7.9933    1.5006    0.0000 C   0  0  0  0  0  0  0  0  0  0  0  0
   10.6686   -3.5352    0.0000 C   0  0  0  0  0  0  0  0  0  0  0  0
   10.4816   -1.8133    0.0000 C   0  0  0  0  0  0  0  0  0  0  0  0
    8.8593    2.0006    0.0000 C   0  0  0  0  0  0  0  0  0  0  0  0
    7.1272    2.0006    0.0000 C   0  0  0  0  0  0  0  0  0  0  0  0
    8.8593    3.0006    0.0000 C   0  0  0  0  0  0  0  0  0  0  0  0
    9.7532    1.4659    0.0000 C   0  0  0  0  0  0  0  0  0  0  0  0
    7.1272    3.0006    0.0000 C   0  0  0  0  0  0  0  0  0  0  0  0
    7.9933    3.5006    0.0000 C   0  0  0  0  0  0  0  0  0  0  0  0
    9.7532    3.5352    0.0000 C   0  0  0  0  0  0  0  0  0  0  0  0
   10.6593    1.9798    0.0000 C   0  0  0  0  0  0  0  0  0  0  0  0
   10.6593    3.0214    0.0000 C   0  0  0  0  0  0  0  0  0  0  0  0
    4.8668   -0.3770    0.0000 H   0  0  0  0  0  0  0  0  0  0  0  0
    4.2736    0.1553    0.0000 H   0  0  0  0  0  0  0  0  0  0  0  0
    3.6646   -2.7344    0.0000 H   0  0  0  0  0  0  0  0  0  0  0  0
    4.4222   -2.4868    0.0000 H   0  0  0  0  0  0  0  0  0  0  0  0
    8.5276   -3.1100    0.0000 H   0  0  0  0  0  0  0  0  0  0  0  0
    9.2568   -3.4316    0.0000 H   0  0  0  0  0  0  0  0  0  0  0  0
    3.5058    0.3171    0.0000 H   0  0  0  0  0  0  0  0  0  0  0  0
    2.7482    0.0695    0.0000 H   0  0  0  0  0  0  0  0  0  0  0  0
    2.3035   -2.0403    0.0000 H   0  0  0  0  0  0  0  0  0  0  0  0
    2.8968   -2.5726    0.0000 H   0  0  0  0  0  0  0  0  0  0  0  0
    6.0174   -0.2875    0.0000 H   0  0  0  0  0  0  0  0  0  0  0  0
   10.6944   -2.6613    0.0000 H   0  0  0  0  0  0  0  0  0  0  0  0
    2.0000   -0.8746    0.0000 H   0  0  0  0  0  0  0  0  0  0  0  0
    7.0240   -3.3672    0.0000 H   0  0  0  0  0  0  0  0  0  0  0  0
    5.4388   -3.0331    0.0000 H   0  0  0  0  0  0  0  0  0  0  0  0
   10.1683   -3.9014    0.0000 H   0  0  0  0  0  0  0  0  0  0  0  0
   11.0348   -4.0356    0.0000 H   0  0  0  0  0  0  0  0  0  0  0  0
   11.1689   -3.1691    0.0000 H   0  0  0  0  0  0  0  0  0  0  0  0
   11.0488   -2.0635    0.0000 H   0  0  0  0  0  0  0  0  0  0  0  0
   10.7318   -1.2460    0.0000 H   0  0  0  0  0  0  0  0  0  0  0  0
    9.9143   -1.5631    0.0000 H   0  0  0  0  0  0  0  0  0  0  0  0
    6.5903    1.6906    0.0000 H   0  0  0  0  0  0  0  0  0  0  0  0
    9.7461    0.8460    0.0000 H   0  0  0  0  0  0  0  0  0  0  0  0
    6.5903    3.3106    0.0000 H   0  0  0  0  0  0  0  0  0  0  0  0
    7.9933    4.1206    0.0000 H   0  0  0  0  0  0  0  0  0  0  0  0
    9.7461    4.1552    0.0000 H   0  0  0  0  0  0  0  0  0  0  0  0
   11.1950    1.6677    0.0000 H   0  0  0  0  0  0  0  0  0  0  0  0
   11.1950    3.3335    0.0000 H   0  0  0  0  0  0  0  0  0  0  0  0
  1  2  2  0  0  0  0
  1  3  2  0  0  0  0
  1 13  1  0  0  0  0
  1 21  1  0  0  0  0
  4  9  1  0  0  0  0
  4 10  1  0  0  0  0
  4 12  1  0  0  0  0
  5  7  1  0  0  0  0
  5 11  1  0  0  0  0
  5 14  1  0  0  0  0
  6 15  1  0  0  0  0
  6 16  1  0  0  0  0
  6 45  1  0  0  0  0
  7 13  2  0  0  0  0
  8 11  2  0  0  0  0
  8 13  1  0  0  0  0
  8 17  1  0  0  0  0
  9 15  1  0  0  0  0
  9 33  1  0  0  0  0
  9 34  1  0  0  0  0
 10 16  1  0  0  0  0
 10 35  1  0  0  0  0
 10 36  1  0  0  0  0
 11 19  1  0  0  0  0
 12 17  2  0  0  0  0
 12 20  1  0  0  0  0
 14 18  1  0  0  0  0
 14 37  1  0  0  0  0
 14 38  1  0  0  0  0
 15 39  1  0  0  0  0
 15 40  1  0  0  0  0
 16 41  1  0  0  0  0
 16 42  1  0  0  0  0
 17 43  1  0  0  0  0
 18 22  1  0  0  0  0
 18 23  1  0  0  0  0
 18 44  1  0  0  0  0
 19 20  2  0  0  0  0
 19 46  1  0  0  0  0
 20 47  1  0  0  0  0
 21 24  1  0  0  0  0
 21 25  2  0  0  0  0
 22 48  1  0  0  0  0
 22 49  1  0  0  0  0
 22 50  1  0  0  0  0
 23 51  1  0  0  0  0
 23 52  1  0  0  0  0
 23 53  1  0  0  0  0
 24 26  1  0  0  0  0
 24 27  2  0  0  0  0
 25 28  1  0  0  0  0
 25 54  1  0  0  0  0
 26 29  1  0  0  0  0
 26 30  2  0  0  0  0
 27 31  1  0  0  0  0
 27 55  1  0  0  0  0
 28 29  2  0  0  0  0
 28 56  1  0  0  0  0
 29 57  1  0  0  0  0
 30 32  1  0  0  0  0
 30 58  1  0  0  0  0
 31 32  2  0  0  0  0
 31 59  1  0  0  0  0
 32 60  1  0  0  0  0
M  END
> <PUBCHEM_COMPOUND_CID>
44554393

> <PUBCHEM_COMPOUND_CANONICALIZED>
1

> <PUBCHEM_CACTVS_COMPLEXITY>
733

> <PUBCHEM_CACTVS_HBOND_ACCEPTOR>
5

> <PUBCHEM_CACTVS_HBOND_DONOR>
1

> <PUBCHEM_CACTVS_ROTATABLE_BOND>
5

> <PUBCHEM_CACTVS_SUBSKEYS>
AAADceB7sABAAAAAAAAAAAAAAAAAAWAAAAA8YMEAAAAAAFjB9AAAHAQYAAAADQjBXgQywfPIAAqiAyRiRHDaBABhihAY2Lg4ZJgIYKLg0dGUpAxgmADoyAcQgIAOgACAwAAWAAAAAQGAACwAAAAAAAAAAA==

> <PUBCHEM_IUPAC_OPENEYE_NAME>
1-isobutyl-3-(1-naphthylsulfonyl)-5-piperazin-1-yl-indazole

> <PUBCHEM_IUPAC_CAS_NAME>
1-(2-methylpropyl)-3-(1-naphthalenylsulfonyl)-5-(1-piperazinyl)indazole

> <PUBCHEM_IUPAC_NAME_MARKUP>
1-(2-methylpropyl)-3-naphthalen-1-ylsulfonyl-5-piperazin-1-ylindazole

> <PUBCHEM_IUPAC_NAME>
1-(2-methylpropyl)-3-naphthalen-1-ylsulfonyl-5-piperazin-1-ylindazole

> <PUBCHEM_IUPAC_SYSTEMATIC_NAME>
1-(2-methylpropyl)-3-naphthalen-1-ylsulfonyl-5-piperazin-1-yl-indazole

> <PUBCHEM_IUPAC_TRADITIONAL_NAME>
1-isobutyl-3-(1-naphthylsulfonyl)-5-piperazino-indazole

> <PUBCHEM_IUPAC_INCHI>
InChI=1S/C25H28N4O2S/c1-18(2)17-29-23-11-10-20(28-14-12-26-13-15-28)16-22(23)25(27-29)32(30,31)24-9-5-7-19-6-3-4-8-21(19)24/h3-11,16,18,26H,12-15,17H2,1-2H3

> <PUBCHEM_IUPAC_INCHIKEY>
JJOOPJBXZHKRLQ-UHFFFAOYSA-N

> <PUBCHEM_XLOGP3_AA>
4.7

> <PUBCHEM_EXACT_MASS>
448.19329732

> <PUBCHEM_MOLECULAR_FORMULA>
C25H28N4O2S

> <PUBCHEM_MOLECULAR_WEIGHT>
448.6

> <PUBCHEM_OPENEYE_CAN_SMILES>
CC(C)CN1C2=C(C=C(C=C2)N3CCNCC3)C(=N1)S(=O)(=O)C4=CC=CC5=CC=CC=C54

> <PUBCHEM_OPENEYE_ISO_SMILES>
CC(C)CN1C2=C(C=C(C=C2)N3CCNCC3)C(=N1)S(=O)(=O)C4=CC=CC5=CC=CC=C54

> <PUBCHEM_CACTVS_TPSA>
75.6

> <PUBCHEM_MONOISOTOPIC_WEIGHT>
448.19329732

> <PUBCHEM_TOTAL_CHARGE>
0

> <PUBCHEM_HEAVY_ATOM_COUNT>
32

> <PUBCHEM_ATOM_DEF_STEREO_COUNT>
0

> <PUBCHEM_ATOM_UDEF_STEREO_COUNT>
0

> <PUBCHEM_BOND_DEF_STEREO_COUNT>
0

> <PUBCHEM_BOND_UDEF_STEREO_COUNT>
0

> <PUBCHEM_ISOTOPIC_ATOM_COUNT>
0

> <PUBCHEM_COMPONENT_COUNT>
1

> <PUBCHEM_CACTVS_TAUTO_COUNT>
-1

> <PUBCHEM_COORDINATE_TYPE>
1
5
255

> <PUBCHEM_BONDANNOTATIONS>
11  19  8
12  17  8
12  20  8
19  20  8
21  24  8
21  25  8
24  26  8
24  27  8
25  28  8
26  29  8
26  30  8
27  31  8
28  29  8
30  32  8
31  32  8
5  11  8
5  7  8
7  13  8
8  11  8
8  13  8
8  17  8

$$$$
