10939008
  -OEChem-09292322122D

 61 64  0     0  0  0  0  0  0999 V2000
   10.7282    4.2673    0.0000 O   0  0  0  0  0  0  0  0  0  0  0  0
    7.2641   -3.7327    0.0000 O   0  0  0  0  0  0  0  0  0  0  0  0
    4.6660   -5.2327    0.0000 O   0  0  0  0  0  0  0  0  0  0  0  0
    6.3981   -5.2327    0.0000 O   0  0  0  0  0  0  0  0  0  0  0  0
    8.9962    1.2673    0.0000 N   0  0  0  0  0  0  0  0  0  0  0  0
   10.7282    2.2673    0.0000 N   0  0  0  0  0  0  0  0  0  0  0  0
    6.3981   -2.2327    0.0000 N   0  0  0  0  0  0  0  0  0  0  0  0
    9.8622    0.7673    0.0000 C   0  0  0  0  0  0  0  0  0  0  0  0
    8.9962    2.2673    0.0000 C   0  0  0  0  0  0  0  0  0  0  0  0
   10.7282    1.2673    0.0000 C   0  0  0  0  0  0  0  0  0  0  0  0
    9.8622    2.7673    0.0000 C   0  0  0  0  0  0  0  0  0  0  0  0
    8.1301    0.7673    0.0000 C   0  0  0  0  0  0  0  0  0  0  0  0
    8.1301   -0.2327    0.0000 C   0  0  0  0  0  0  0  0  0  0  0  0
   11.5942    2.7673    0.0000 C   0  0  0  0  0  0  0  0  0  0  0  0
    7.2641   -0.7327    0.0000 C   0  0  0  0  0  0  0  0  0  0  0  0
    7.2641   -1.7327    0.0000 C   0  0  0  0  0  0  0  0  0  0  0  0
   11.5942    3.7673    0.0000 C   0  0  0  0  0  0  0  0  0  0  0  0
   12.4603    2.2673    0.0000 C   0  0  0  0  0  0  0  0  0  0  0  0
   12.4603    4.2673    0.0000 C   0  0  0  0  0  0  0  0  0  0  0  0
   13.3263    2.7673    0.0000 C   0  0  0  0  0  0  0  0  0  0  0  0
   13.3263    3.7673    0.0000 C   0  0  0  0  0  0  0  0  0  0  0  0
    6.3981   -3.2327    0.0000 C   0  0  0  0  0  0  0  0  0  0  0  0
    5.5321   -3.7327    0.0000 C   0  0  0  0  0  0  0  0  0  0  0  0
   10.7282    5.2673    0.0000 C   0  0  0  0  0  0  0  0  0  0  0  0
    4.6660   -3.2327    0.0000 C   0  0  0  0  0  0  0  0  0  0  0  0
    3.8000   -3.7327    0.0000 C   0  0  0  0  0  0  0  0  0  0  0  0
    5.5321   -4.7327    0.0000 C   0  0  0  0  0  0  0  0  0  0  0  0
    3.8000   -4.7327    0.0000 C   0  0  0  0  0  0  0  0  0  0  0  0
    2.9061   -3.1980    0.0000 C   0  0  0  0  0  0  0  0  0  0  0  0
    2.9061   -5.2673    0.0000 C   0  0  0  0  0  0  0  0  0  0  0  0
    2.0000   -3.7118    0.0000 C   0  0  0  0  0  0  0  0  0  0  0  0
    2.0000   -4.7535    0.0000 C   0  0  0  0  0  0  0  0  0  0  0  0
    9.4637    0.2924    0.0000 H   0  0  0  0  0  0  0  0  0  0  0  0
   10.2607    0.2924    0.0000 H   0  0  0  0  0  0  0  0  0  0  0  0
    8.7841    2.8499    0.0000 H   0  0  0  0  0  0  0  0  0  0  0  0
    8.3856    2.1597    0.0000 H   0  0  0  0  0  0  0  0  0  0  0  0
   10.9403    0.6847    0.0000 H   0  0  0  0  0  0  0  0  0  0  0  0
   11.3388    1.3750    0.0000 H   0  0  0  0  0  0  0  0  0  0  0  0
   10.2607    3.2423    0.0000 H   0  0  0  0  0  0  0  0  0  0  0  0
    9.4637    3.2423    0.0000 H   0  0  0  0  0  0  0  0  0  0  0  0
    7.9181    1.3499    0.0000 H   0  0  0  0  0  0  0  0  0  0  0  0
    7.5196    0.6597    0.0000 H   0  0  0  0  0  0  0  0  0  0  0  0
    8.3422   -0.8153    0.0000 H   0  0  0  0  0  0  0  0  0  0  0  0
    8.7407   -0.1250    0.0000 H   0  0  0  0  0  0  0  0  0  0  0  0
    7.0521   -0.1501    0.0000 H   0  0  0  0  0  0  0  0  0  0  0  0
    6.6535   -0.8403    0.0000 H   0  0  0  0  0  0  0  0  0  0  0  0
    7.4762   -2.3153    0.0000 H   0  0  0  0  0  0  0  0  0  0  0  0
    7.8747   -1.6250    0.0000 H   0  0  0  0  0  0  0  0  0  0  0  0
   12.4603    1.6473    0.0000 H   0  0  0  0  0  0  0  0  0  0  0  0
   12.4603    4.8873    0.0000 H   0  0  0  0  0  0  0  0  0  0  0  0
    5.8612   -1.9227    0.0000 H   0  0  0  0  0  0  0  0  0  0  0  0
   13.8632    2.4573    0.0000 H   0  0  0  0  0  0  0  0  0  0  0  0
   13.8632    4.0773    0.0000 H   0  0  0  0  0  0  0  0  0  0  0  0
   11.3482    5.2673    0.0000 H   0  0  0  0  0  0  0  0  0  0  0  0
   10.7282    5.8873    0.0000 H   0  0  0  0  0  0  0  0  0  0  0  0
   10.1082    5.2673    0.0000 H   0  0  0  0  0  0  0  0  0  0  0  0
    4.6660   -2.6127    0.0000 H   0  0  0  0  0  0  0  0  0  0  0  0
    2.9132   -2.5780    0.0000 H   0  0  0  0  0  0  0  0  0  0  0  0
    2.9132   -5.8873    0.0000 H   0  0  0  0  0  0  0  0  0  0  0  0
    1.4643   -3.3998    0.0000 H   0  0  0  0  0  0  0  0  0  0  0  0
    1.4643   -5.0656    0.0000 H   0  0  0  0  0  0  0  0  0  0  0  0
  1 17  1  0  0  0  0
  1 24  1  0  0  0  0
  2 22  2  0  0  0  0
  3 27  1  0  0  0  0
  3 28  1  0  0  0  0
  4 27  2  0  0  0  0
  5  8  1  0  0  0  0
  5  9  1  0  0  0  0
  5 12  1  0  0  0  0
  6 10  1  0  0  0  0
  6 11  1  0  0  0  0
  6 14  1  0  0  0  0
  7 16  1  0  0  0  0
  7 22  1  0  0  0  0
  7 51  1  0  0  0  0
  8 10  1  0  0  0  0
  8 33  1  0  0  0  0
  8 34  1  0  0  0  0
  9 11  1  0  0  0  0
  9 35  1  0  0  0  0
  9 36  1  0  0  0  0
 10 37  1  0  0  0  0
 10 38  1  0  0  0  0
 11 39  1  0  0  0  0
 11 40  1  0  0  0  0
 12 13  1  0  0  0  0
 12 41  1  0  0  0  0
 12 42  1  0  0  0  0
 13 15  1  0  0  0  0
 13 43  1  0  0  0  0
 13 44  1  0  0  0  0
 14 17  1  0  0  0  0
 14 18  2  0  0  0  0
 15 16  1  0  0  0  0
 15 45  1  0  0  0  0
 15 46  1  0  0  0  0
 16 47  1  0  0  0  0
 16 48  1  0  0  0  0
 17 19  2  0  0  0  0
 18 20  1  0  0  0  0
 18 49  1  0  0  0  0
 19 21  1  0  0  0  0
 19 50  1  0  0  0  0
 20 21  2  0  0  0  0
 20 52  1  0  0  0  0
 21 53  1  0  0  0  0
 22 23  1  0  0  0  0
 23 25  2  0  0  0  0
 23 27  1  0  0  0  0
 24 54  1  0  0  0  0
 24 55  1  0  0  0  0
 24 56  1  0  0  0  0
 25 26  1  0  0  0  0
 25 57  1  0  0  0  0
 26 28  1  0  0  0  0
 26 29  2  0  0  0  0
 28 30  2  0  0  0  0
 29 31  1  0  0  0  0
 29 58  1  0  0  0  0
 30 32  1  0  0  0  0
 30 59  1  0  0  0  0
 31 32  2  0  0  0  0
 31 60  1  0  0  0  0
 32 61  1  0  0  0  0
M  END
> <PUBCHEM_COMPOUND_CID>
10939008

> <PUBCHEM_COMPOUND_CANONICALIZED>
1

> <PUBCHEM_CACTVS_COMPLEXITY>
674

> <PUBCHEM_CACTVS_HBOND_ACCEPTOR>
6

> <PUBCHEM_CACTVS_HBOND_DONOR>
1

> <PUBCHEM_CACTVS_ROTATABLE_BOND>
8

> <PUBCHEM_CACTVS_SUBSKEYS>
AAADceB7OAAAAAAAAAAAAAAAAAAAAAAAAAA8YIEAAAAAAACBQAAAHgAQAAAADAzBmAYyzoPABACIAiXSWACCCAAhIgAIiIEPbMgOZi7MsZuXOijm9hHY6YeQwCAOAAAAAAAIEAAAAAAAABAgAAAAAAAAAA==

> <PUBCHEM_IUPAC_OPENEYE_NAME>
N-[4-[4-(2-methoxyphenyl)piperazin-1-yl]butyl]-2-oxo-chromene-3-carboxamide

> <PUBCHEM_IUPAC_CAS_NAME>
N-[4-[4-(2-methoxyphenyl)-1-piperazinyl]butyl]-2-oxo-1-benzopyran-3-carboxamide

> <PUBCHEM_IUPAC_NAME_MARKUP>
<I>N</I>-[4-[4-(2-methoxyphenyl)piperazin-1-yl]butyl]-2-oxochromene-3-carboxamide

> <PUBCHEM_IUPAC_NAME>
N-[4-[4-(2-methoxyphenyl)piperazin-1-yl]butyl]-2-oxochromene-3-carboxamide

> <PUBCHEM_IUPAC_SYSTEMATIC_NAME>
N-[4-[4-(2-methoxyphenyl)piperazin-1-yl]butyl]-2-oxidanylidene-chromene-3-carboxamide

> <PUBCHEM_IUPAC_TRADITIONAL_NAME>
2-keto-N-[4-[4-(2-methoxyphenyl)piperazino]butyl]chromene-3-carboxamide

> <PUBCHEM_IUPAC_INCHI>
InChI=1S/C25H29N3O4/c1-31-23-11-5-3-9-21(23)28-16-14-27(15-17-28)13-7-6-12-26-24(29)20-18-19-8-2-4-10-22(19)32-25(20)30/h2-5,8-11,18H,6-7,12-17H2,1H3,(H,26,29)

> <PUBCHEM_IUPAC_INCHIKEY>
UCVFOYIRJYVIDW-UHFFFAOYSA-N

> <PUBCHEM_XLOGP3_AA>
4.3

> <PUBCHEM_EXACT_MASS>
435.21580641

> <PUBCHEM_MOLECULAR_FORMULA>
C25H29N3O4

> <PUBCHEM_MOLECULAR_WEIGHT>
435.5

> <PUBCHEM_OPENEYE_CAN_SMILES>
COC1=CC=CC=C1N2CCN(CC2)CCCCNC(=O)C3=CC4=CC=CC=C4OC3=O

> <PUBCHEM_OPENEYE_ISO_SMILES>
COC1=CC=CC=C1N2CCN(CC2)CCCCNC(=O)C3=CC4=CC=CC=C4OC3=O

> <PUBCHEM_CACTVS_TPSA>
71.1

> <PUBCHEM_MONOISOTOPIC_WEIGHT>
435.21580641

> <PUBCHEM_TOTAL_CHARGE>
0

> <PUBCHEM_HEAVY_ATOM_COUNT>
32

> <PUBCHEM_ATOM_DEF_STEREO_COUNT>
0

> <PUBCHEM_ATOM_UDEF_STEREO_COUNT>
0

> <PUBCHEM_BOND_DEF_STEREO_COUNT>
0

> <PUBCHEM_BOND_UDEF_STEREO_COUNT>
0

> <PUBCHEM_ISOTOPIC_ATOM_COUNT>
0

> <PUBCHEM_COMPONENT_COUNT>
1

> <PUBCHEM_CACTVS_TAUTO_COUNT>
-1

> <PUBCHEM_COORDINATE_TYPE>
1
5
255

> <PUBCHEM_BONDANNOTATIONS>
14  17  8
14  18  8
17  19  8
18  20  8
19  21  8
20  21  8
23  25  8
23  27  8
25  26  8
26  28  8
26  29  8
28  30  8
29  31  8
3  27  8
3  28  8
30  32  8
31  32  8

$$$$
