56833379
  -OEChem-09292322322D

174181  0     0  0  0  0  0  0999 V2000
    6.0440  -19.8885    0.0000 O   0  0  0  0  0  0  0  0  0  0  0  0
    8.9282   19.8885    0.0000 O   0  0  0  0  0  0  0  0  0  0  0  0
   11.2402  -12.8885    0.0000 O   0  0  0  0  0  0  0  0  0  0  0  0
    3.7320   12.8885    0.0000 O   0  0  0  0  0  0  0  0  0  0  0  0
   10.3742   -8.3885    0.0000 O   0  0  0  0  0  0  0  0  0  0  0  0
    4.5981    8.3885    0.0000 O   0  0  0  0  0  0  0  0  0  0  0  0
   12.1062   -9.3885    0.0000 O   0  0  0  0  0  0  0  0  0  0  0  0
    2.8660    9.3885    0.0000 O   0  0  0  0  0  0  0  0  0  0  0  0
    7.7761  -16.8885    0.0000 N   0  0  0  0  0  0  0  0  0  0  0  0
    7.1962   16.8885    0.0000 N   0  0  0  0  0  0  0  0  0  0  0  0
    7.7761  -18.8885    0.0000 N   0  0  0  0  0  0  0  0  0  0  0  0
    7.1962   18.8885    0.0000 N   0  0  0  0  0  0  0  0  0  0  0  0
    9.5081  -12.8885    0.0000 N   0  0  0  0  0  0  0  0  0  0  0  0
    5.4641   12.8885    0.0000 N   0  0  0  0  0  0  0  0  0  0  0  0
    8.1421   -3.8496    0.0000 N   0  0  0  0  0  0  0  0  0  0  0  0
    6.8301    3.8496    0.0000 N   0  0  0  0  0  0  0  0  0  0  0  0
    9.1421   -3.8496    0.0000 N   0  0  0  0  0  0  0  0  0  0  0  0
    5.8301    3.8496    0.0000 N   0  0  0  0  0  0  0  0  0  0  0  0
    9.4511   -4.8007    0.0000 N   0  0  0  0  0  0  0  0  0  0  0  0
    5.5211    4.8007    0.0000 N   0  0  0  0  0  0  0  0  0  0  0  0
    8.6421  -17.3885    0.0000 C   0  0  0  0  0  0  0  0  0  0  0  0
    6.9101  -17.3885    0.0000 C   0  0  0  0  0  0  0  0  0  0  0  0
    8.0622   17.3885    0.0000 C   0  0  0  0  0  0  0  0  0  0  0  0
    6.3301   17.3885    0.0000 C   0  0  0  0  0  0  0  0  0  0  0  0
    8.6421  -18.3885    0.0000 C   0  0  0  0  0  0  0  0  0  0  0  0
    6.9101  -18.3885    0.0000 C   0  0  0  0  0  0  0  0  0  0  0  0
    8.0622   18.3885    0.0000 C   0  0  0  0  0  0  0  0  0  0  0  0
    6.3301   18.3885    0.0000 C   0  0  0  0  0  0  0  0  0  0  0  0
    7.7761  -15.8885    0.0000 C   0  0  0  0  0  0  0  0  0  0  0  0
    7.1962   15.8885    0.0000 C   0  0  0  0  0  0  0  0  0  0  0  0
    8.6421  -15.3885    0.0000 C   0  0  0  0  0  0  0  0  0  0  0  0
    6.3301   15.3885    0.0000 C   0  0  0  0  0  0  0  0  0  0  0  0
    7.7761  -19.8885    0.0000 C   0  0  0  0  0  0  0  0  0  0  0  0
    7.1962   19.8885    0.0000 C   0  0  0  0  0  0  0  0  0  0  0  0
    8.6421  -14.3885    0.0000 C   0  0  0  0  0  0  0  0  0  0  0  0
    6.3301   14.3885    0.0000 C   0  0  0  0  0  0  0  0  0  0  0  0
    9.5081  -13.8885    0.0000 C   0  0  0  0  0  0  0  0  0  0  0  0
    5.4641   13.8885    0.0000 C   0  0  0  0  0  0  0  0  0  0  0  0
    6.9101  -20.3885    0.0000 C   0  0  0  0  0  0  0  0  0  0  0  0
    8.0622   20.3885    0.0000 C   0  0  0  0  0  0  0  0  0  0  0  0
    8.6421  -20.3885    0.0000 C   0  0  0  0  0  0  0  0  0  0  0  0
    6.3301   20.3885    0.0000 C   0  0  0  0  0  0  0  0  0  0  0  0
    6.9101  -21.3885    0.0000 C   0  0  0  0  0  0  0  0  0  0  0  0
    8.0622   21.3885    0.0000 C   0  0  0  0  0  0  0  0  0  0  0  0
    8.6421  -21.3885    0.0000 C   0  0  0  0  0  0  0  0  0  0  0  0
    6.3301   21.3885    0.0000 C   0  0  0  0  0  0  0  0  0  0  0  0
    7.7761  -21.8885    0.0000 C   0  0  0  0  0  0  0  0  0  0  0  0
    7.1962   21.8885    0.0000 C   0  0  0  0  0  0  0  0  0  0  0  0
   10.3742  -12.3885    0.0000 C   0  0  0  0  0  0  0  0  0  0  0  0
    4.5981   12.3885    0.0000 C   0  0  0  0  0  0  0  0  0  0  0  0
    7.7800   -0.4045    0.0000 C   0  0  0  0  0  0  0  0  0  0  0  0
    7.1922    0.4045    0.0000 C   0  0  0  0  0  0  0  0  0  0  0  0
    5.1780  -20.3885    0.0000 C   0  0  0  0  0  0  0  0  0  0  0  0
    9.7942   20.3885    0.0000 C   0  0  0  0  0  0  0  0  0  0  0  0
    7.3733   -1.3180    0.0000 C   0  0  0  0  0  0  0  0  0  0  0  0
    7.5990    1.3180    0.0000 C   0  0  0  0  0  0  0  0  0  0  0  0
    7.9611   -2.1271    0.0000 C   0  0  0  0  0  0  0  0  0  0  0  0
    7.0112    2.1271    0.0000 C   0  0  0  0  0  0  0  0  0  0  0  0
   10.3742  -11.3885    0.0000 C   0  0  0  0  0  0  0  0  0  0  0  0
    4.5981   11.3885    0.0000 C   0  0  0  0  0  0  0  0  0  0  0  0
    7.5543   -3.0406    0.0000 C   0  0  0  0  0  0  0  0  0  0  0  0
    7.4179    3.0406    0.0000 C   0  0  0  0  0  0  0  0  0  0  0  0
   11.2402  -10.8885    0.0000 C   0  0  0  0  0  0  0  0  0  0  0  0
    3.7320   10.8885    0.0000 C   0  0  0  0  0  0  0  0  0  0  0  0
    9.5081  -10.8885    0.0000 C   0  0  0  0  0  0  0  0  0  0  0  0
    5.4641   10.8885    0.0000 C   0  0  0  0  0  0  0  0  0  0  0  0
   11.2402   -9.8885    0.0000 C   0  0  0  0  0  0  0  0  0  0  0  0
    3.7320    9.8885    0.0000 C   0  0  0  0  0  0  0  0  0  0  0  0
    7.8331   -4.8007    0.0000 C   0  0  0  0  0  0  0  0  0  0  0  0
    7.1391    4.8007    0.0000 C   0  0  0  0  0  0  0  0  0  0  0  0
    9.5081   -9.8885    0.0000 C   0  0  0  0  0  0  0  0  0  0  0  0
    5.4641    9.8885    0.0000 C   0  0  0  0  0  0  0  0  0  0  0  0
   10.3742   -9.3885    0.0000 C   0  0  0  0  0  0  0  0  0  0  0  0
    4.5981    9.3885    0.0000 C   0  0  0  0  0  0  0  0  0  0  0  0
    8.6421   -5.3885    0.0000 C   0  0  0  0  0  0  0  0  0  0  0  0
    6.3301    5.3885    0.0000 C   0  0  0  0  0  0  0  0  0  0  0  0
    8.6421   -6.3885    0.0000 C   0  0  0  0  0  0  0  0  0  0  0  0
    6.3301    6.3885    0.0000 C   0  0  0  0  0  0  0  0  0  0  0  0
    9.5081   -6.8885    0.0000 C   0  0  0  0  0  0  0  0  0  0  0  0
    5.4641    6.8885    0.0000 C   0  0  0  0  0  0  0  0  0  0  0  0
    9.5081   -7.8885    0.0000 C   0  0  0  0  0  0  0  0  0  0  0  0
    5.4641    7.8885    0.0000 C   0  0  0  0  0  0  0  0  0  0  0  0
   12.9722   -9.8885    0.0000 C   0  0  0  0  0  0  0  0  0  0  0  0
    2.0000    9.8885    0.0000 C   0  0  0  0  0  0  0  0  0  0  0  0
    9.2527  -17.4961    0.0000 H   0  0  0  0  0  0  0  0  0  0  0  0
    8.8542  -16.8059    0.0000 H   0  0  0  0  0  0  0  0  0  0  0  0
    6.6980  -16.8059    0.0000 H   0  0  0  0  0  0  0  0  0  0  0  0
    6.2995  -17.4961    0.0000 H   0  0  0  0  0  0  0  0  0  0  0  0
    8.2742   16.8059    0.0000 H   0  0  0  0  0  0  0  0  0  0  0  0
    8.6728   17.4961    0.0000 H   0  0  0  0  0  0  0  0  0  0  0  0
    5.7196   17.4961    0.0000 H   0  0  0  0  0  0  0  0  0  0  0  0
    6.1181   16.8059    0.0000 H   0  0  0  0  0  0  0  0  0  0  0  0
    8.8542  -18.9711    0.0000 H   0  0  0  0  0  0  0  0  0  0  0  0
    9.2527  -18.2808    0.0000 H   0  0  0  0  0  0  0  0  0  0  0  0
    6.2995  -18.2808    0.0000 H   0  0  0  0  0  0  0  0  0  0  0  0
    6.6980  -18.9711    0.0000 H   0  0  0  0  0  0  0  0  0  0  0  0
    8.6728   18.2808    0.0000 H   0  0  0  0  0  0  0  0  0  0  0  0
    8.2742   18.9711    0.0000 H   0  0  0  0  0  0  0  0  0  0  0  0
    6.1181   18.9711    0.0000 H   0  0  0  0  0  0  0  0  0  0  0  0
    5.7196   18.2808    0.0000 H   0  0  0  0  0  0  0  0  0  0  0  0
    7.5640  -15.3059    0.0000 H   0  0  0  0  0  0  0  0  0  0  0  0
    7.1655  -15.9961    0.0000 H   0  0  0  0  0  0  0  0  0  0  0  0
    7.4082   15.3059    0.0000 H   0  0  0  0  0  0  0  0  0  0  0  0
    7.8067   15.9961    0.0000 H   0  0  0  0  0  0  0  0  0  0  0  0
    8.8542  -15.9711    0.0000 H   0  0  0  0  0  0  0  0  0  0  0  0
    9.2527  -15.2808    0.0000 H   0  0  0  0  0  0  0  0  0  0  0  0
    6.1181   15.9711    0.0000 H   0  0  0  0  0  0  0  0  0  0  0  0
    5.7196   15.2808    0.0000 H   0  0  0  0  0  0  0  0  0  0  0  0
    8.4300  -13.8059    0.0000 H   0  0  0  0  0  0  0  0  0  0  0  0
    8.0315  -14.4961    0.0000 H   0  0  0  0  0  0  0  0  0  0  0  0
    6.5422   13.8059    0.0000 H   0  0  0  0  0  0  0  0  0  0  0  0
    6.9407   14.4961    0.0000 H   0  0  0  0  0  0  0  0  0  0  0  0
    9.7202  -14.4711    0.0000 H   0  0  0  0  0  0  0  0  0  0  0  0
   10.1187  -13.7808    0.0000 H   0  0  0  0  0  0  0  0  0  0  0  0
    5.2520   14.4711    0.0000 H   0  0  0  0  0  0  0  0  0  0  0  0
    4.8535   13.7808    0.0000 H   0  0  0  0  0  0  0  0  0  0  0  0
    9.1790  -20.0785    0.0000 H   0  0  0  0  0  0  0  0  0  0  0  0
    5.7932   20.0785    0.0000 H   0  0  0  0  0  0  0  0  0  0  0  0
    6.3731  -21.6985    0.0000 H   0  0  0  0  0  0  0  0  0  0  0  0
    8.5991   21.6985    0.0000 H   0  0  0  0  0  0  0  0  0  0  0  0
    9.1790  -21.6985    0.0000 H   0  0  0  0  0  0  0  0  0  0  0  0
    5.7932   21.6985    0.0000 H   0  0  0  0  0  0  0  0  0  0  0  0
    8.9712  -12.5785    0.0000 H   0  0  0  0  0  0  0  0  0  0  0  0
    6.0010   12.5785    0.0000 H   0  0  0  0  0  0  0  0  0  0  0  0
    7.7761  -22.5085    0.0000 H   0  0  0  0  0  0  0  0  0  0  0  0
    7.1962   22.5085    0.0000 H   0  0  0  0  0  0  0  0  0  0  0  0
    8.2940   -0.7512    0.0000 H   0  0  0  0  0  0  0  0  0  0  0  0
    8.2107    0.0415    0.0000 H   0  0  0  0  0  0  0  0  0  0  0  0
    6.6782    0.7512    0.0000 H   0  0  0  0  0  0  0  0  0  0  0  0
    6.7615   -0.0415    0.0000 H   0  0  0  0  0  0  0  0  0  0  0  0
    4.8680  -19.8515    0.0000 H   0  0  0  0  0  0  0  0  0  0  0  0
    4.6411  -20.6985    0.0000 H   0  0  0  0  0  0  0  0  0  0  0  0
    5.4880  -20.9254    0.0000 H   0  0  0  0  0  0  0  0  0  0  0  0
   10.1042   19.8515    0.0000 H   0  0  0  0  0  0  0  0  0  0  0  0
   10.3312   20.6985    0.0000 H   0  0  0  0  0  0  0  0  0  0  0  0
    9.4842   20.9254    0.0000 H   0  0  0  0  0  0  0  0  0  0  0  0
    6.8593   -0.9714    0.0000 H   0  0  0  0  0  0  0  0  0  0  0  0
    6.9426   -1.7640    0.0000 H   0  0  0  0  0  0  0  0  0  0  0  0
    8.1130    0.9714    0.0000 H   0  0  0  0  0  0  0  0  0  0  0  0
    8.0296    1.7640    0.0000 H   0  0  0  0  0  0  0  0  0  0  0  0
    8.4751   -2.4738    0.0000 H   0  0  0  0  0  0  0  0  0  0  0  0
    8.3918   -1.6811    0.0000 H   0  0  0  0  0  0  0  0  0  0  0  0
    6.4972    2.4738    0.0000 H   0  0  0  0  0  0  0  0  0  0  0  0
    6.5805    1.6811    0.0000 H   0  0  0  0  0  0  0  0  0  0  0  0
    7.0403   -2.6939    0.0000 H   0  0  0  0  0  0  0  0  0  0  0  0
    7.1236   -3.4866    0.0000 H   0  0  0  0  0  0  0  0  0  0  0  0
    7.9319    2.6939    0.0000 H   0  0  0  0  0  0  0  0  0  0  0  0
    7.8486    3.4866    0.0000 H   0  0  0  0  0  0  0  0  0  0  0  0
   11.7771  -11.1985    0.0000 H   0  0  0  0  0  0  0  0  0  0  0  0
    3.1951   11.1985    0.0000 H   0  0  0  0  0  0  0  0  0  0  0  0
    8.9712  -11.1985    0.0000 H   0  0  0  0  0  0  0  0  0  0  0  0
    6.0010   11.1985    0.0000 H   0  0  0  0  0  0  0  0  0  0  0  0
    7.2434   -4.9923    0.0000 H   0  0  0  0  0  0  0  0  0  0  0  0
    7.7288    4.9923    0.0000 H   0  0  0  0  0  0  0  0  0  0  0  0
    8.9712   -9.5785    0.0000 H   0  0  0  0  0  0  0  0  0  0  0  0
    6.0010    9.5785    0.0000 H   0  0  0  0  0  0  0  0  0  0  0  0
    8.0315   -6.2808    0.0000 H   0  0  0  0  0  0  0  0  0  0  0  0
    8.4300   -6.9711    0.0000 H   0  0  0  0  0  0  0  0  0  0  0  0
    6.9407    6.2808    0.0000 H   0  0  0  0  0  0  0  0  0  0  0  0
    6.5422    6.9711    0.0000 H   0  0  0  0  0  0  0  0  0  0  0  0
   10.1187   -6.9961    0.0000 H   0  0  0  0  0  0  0  0  0  0  0  0
    9.7202   -6.3059    0.0000 H   0  0  0  0  0  0  0  0  0  0  0  0
    4.8535    6.9961    0.0000 H   0  0  0  0  0  0  0  0  0  0  0  0
    5.2520    6.3059    0.0000 H   0  0  0  0  0  0  0  0  0  0  0  0
    8.8976   -7.7808    0.0000 H   0  0  0  0  0  0  0  0  0  0  0  0
    9.2961   -8.4711    0.0000 H   0  0  0  0  0  0  0  0  0  0  0  0
    6.0747    7.7808    0.0000 H   0  0  0  0  0  0  0  0  0  0  0  0
    5.6762    8.4711    0.0000 H   0  0  0  0  0  0  0  0  0  0  0  0
   12.6622  -10.4254    0.0000 H   0  0  0  0  0  0  0  0  0  0  0  0
   13.5092  -10.1985    0.0000 H   0  0  0  0  0  0  0  0  0  0  0  0
   13.2822   -9.3515    0.0000 H   0  0  0  0  0  0  0  0  0  0  0  0
    2.3100   10.4254    0.0000 H   0  0  0  0  0  0  0  0  0  0  0  0
    1.4631   10.1985    0.0000 H   0  0  0  0  0  0  0  0  0  0  0  0
    1.6900    9.3515    0.0000 H   0  0  0  0  0  0  0  0  0  0  0  0
  1 39  1  0  0  0  0
  1 53  1  0  0  0  0
  2 40  1  0  0  0  0
  2 54  1  0  0  0  0
  3 49  2  0  0  0  0
  4 50  2  0  0  0  0
  5 73  1  0  0  0  0
  5 81  1  0  0  0  0
  6 74  1  0  0  0  0
  6 82  1  0  0  0  0
  7 67  1  0  0  0  0
  7 83  1  0  0  0  0
  8 68  1  0  0  0  0
  8 84  1  0  0  0  0
  9 21  1  0  0  0  0
  9 22  1  0  0  0  0
  9 29  1  0  0  0  0
 10 23  1  0  0  0  0
 10 24  1  0  0  0  0
 10 30  1  0  0  0  0
 11 25  1  0  0  0  0
 11 26  1  0  0  0  0
 11 33  1  0  0  0  0
 12 27  1  0  0  0  0
 12 28  1  0  0  0  0
 12 34  1  0  0  0  0
 13 37  1  0  0  0  0
 13 49  1  0  0  0  0
 13123  1  0  0  0  0
 14 38  1  0  0  0  0
 14 50  1  0  0  0  0
 14124  1  0  0  0  0
 15 17  1  0  0  0  0
 15 61  1  0  0  0  0
 15 69  1  0  0  0  0
 16 18  1  0  0  0  0
 16 62  1  0  0  0  0
 16 70  1  0  0  0  0
 17 19  2  0  0  0  0
 18 20  2  0  0  0  0
 19 75  1  0  0  0  0
 20 76  1  0  0  0  0
 21 25  1  0  0  0  0
 21 85  1  0  0  0  0
 21 86  1  0  0  0  0
 22 26  1  0  0  0  0
 22 87  1  0  0  0  0
 22 88  1  0  0  0  0
 23 27  1  0  0  0  0
 23 89  1  0  0  0  0
 23 90  1  0  0  0  0
 24 28  1  0  0  0  0
 24 91  1  0  0  0  0
 24 92  1  0  0  0  0
 25 93  1  0  0  0  0
 25 94  1  0  0  0  0
 26 95  1  0  0  0  0
 26 96  1  0  0  0  0
 27 97  1  0  0  0  0
 27 98  1  0  0  0  0
 28 99  1  0  0  0  0
 28100  1  0  0  0  0
 29 31  1  0  0  0  0
 29101  1  0  0  0  0
 29102  1  0  0  0  0
 30 32  1  0  0  0  0
 30103  1  0  0  0  0
 30104  1  0  0  0  0
 31 35  1  0  0  0  0
 31105  1  0  0  0  0
 31106  1  0  0  0  0
 32 36  1  0  0  0  0
 32107  1  0  0  0  0
 32108  1  0  0  0  0
 33 39  1  0  0  0  0
 33 41  2  0  0  0  0
 34 40  1  0  0  0  0
 34 42  2  0  0  0  0
 35 37  1  0  0  0  0
 35109  1  0  0  0  0
 35110  1  0  0  0  0
 36 38  1  0  0  0  0
 36111  1  0  0  0  0
 36112  1  0  0  0  0
 37113  1  0  0  0  0
 37114  1  0  0  0  0
 38115  1  0  0  0  0
 38116  1  0  0  0  0
 39 43  2  0  0  0  0
 40 44  2  0  0  0  0
 41 45  1  0  0  0  0
 41117  1  0  0  0  0
 42 46  1  0  0  0  0
 42118  1  0  0  0  0
 43 47  1  0  0  0  0
 43119  1  0  0  0  0
 44 48  1  0  0  0  0
 44120  1  0  0  0  0
 45 47  2  0  0  0  0
 45121  1  0  0  0  0
 46 48  2  0  0  0  0
 46122  1  0  0  0  0
 47125  1  0  0  0  0
 48126  1  0  0  0  0
 49 59  1  0  0  0  0
 50 60  1  0  0  0  0
 51 52  1  0  0  0  0
 51 55  1  0  0  0  0
 51127  1  0  0  0  0
 51128  1  0  0  0  0
 52 56  1  0  0  0  0
 52129  1  0  0  0  0
 52130  1  0  0  0  0
 53131  1  0  0  0  0
 53132  1  0  0  0  0
 53133  1  0  0  0  0
 54134  1  0  0  0  0
 54135  1  0  0  0  0
 54136  1  0  0  0  0
 55 57  1  0  0  0  0
 55137  1  0  0  0  0
 55138  1  0  0  0  0
 56 58  1  0  0  0  0
 56139  1  0  0  0  0
 56140  1  0  0  0  0
 57 61  1  0  0  0  0
 57141  1  0  0  0  0
 57142  1  0  0  0  0
 58 62  1  0  0  0  0
 58143  1  0  0  0  0
 58144  1  0  0  0  0
 59 63  2  0  0  0  0
 59 65  1  0  0  0  0
 60 64  2  0  0  0  0
 60 66  1  0  0  0  0
 61145  1  0  0  0  0
 61146  1  0  0  0  0
 62147  1  0  0  0  0
 62148  1  0  0  0  0
 63 67  1  0  0  0  0
 63149  1  0  0  0  0
 64 68  1  0  0  0  0
 64150  1  0  0  0  0
 65 71  2  0  0  0  0
 65151  1  0  0  0  0
 66 72  2  0  0  0  0
 66152  1  0  0  0  0
 67 73  2  0  0  0  0
 68 74  2  0  0  0  0
 69 75  2  0  0  0  0
 69153  1  0  0  0  0
 70 76  2  0  0  0  0
 70154  1  0  0  0  0
 71 73  1  0  0  0  0
 71155  1  0  0  0  0
 72 74  1  0  0  0  0
 72156  1  0  0  0  0
 75 77  1  0  0  0  0
 76 78  1  0  0  0  0
 77 79  1  0  0  0  0
 77157  1  0  0  0  0
 77158  1  0  0  0  0
 78 80  1  0  0  0  0
 78159  1  0  0  0  0
 78160  1  0  0  0  0
 79 81  1  0  0  0  0
 79161  1  0  0  0  0
 79162  1  0  0  0  0
 80 82  1  0  0  0  0
 80163  1  0  0  0  0
 80164  1  0  0  0  0
 81165  1  0  0  0  0
 81166  1  0  0  0  0
 82167  1  0  0  0  0
 82168  1  0  0  0  0
 83169  1  0  0  0  0
 83170  1  0  0  0  0
 83171  1  0  0  0  0
 84172  1  0  0  0  0
 84173  1  0  0  0  0
 84174  1  0  0  0  0
M  END
> <PUBCHEM_COMPOUND_CID>
56833379

> <PUBCHEM_COMPOUND_CANONICALIZED>
1

> <PUBCHEM_CACTVS_COMPLEXITY>
1660

> <PUBCHEM_CACTVS_HBOND_ACCEPTOR>
16

> <PUBCHEM_CACTVS_HBOND_DONOR>
2

> <PUBCHEM_CACTVS_ROTATABLE_BOND>
37

> <PUBCHEM_CACTVS_SUBSKEYS>
AAADcfB//AAAAAAAAAAAAAAAAAAAAWLAAAA8eMGCAAAAAAAB9AAAHgAYAAAADAzhngY+xpPIBACqAzV3VACCDAQ1sgAY2IE//MgPZjLEtZuXOSrk1hHa6Ye63JLOIAABAAAAUABAAAIAAACgAAAAAAAAAA==

> <PUBCHEM_IUPAC_OPENEYE_NAME>
3-methoxy-4-[3-[1-[8-[4-[3-[2-methoxy-4-[4-[4-(2-methoxyphenyl)piperazin-1-yl]butylcarbamoyl]phenoxy]propyl]triazol-1-yl]octyl]triazol-4-yl]propoxy]-N-[4-[4-(2-methoxyphenyl)piperazin-1-yl]butyl]benzamide

> <PUBCHEM_IUPAC_CAS_NAME>
3-methoxy-4-[3-[1-[8-[4-[3-[2-methoxy-4-[[4-[4-(2-methoxyphenyl)-1-piperazinyl]butylamino]-oxomethyl]phenoxy]propyl]-1-triazolyl]octyl]-4-triazolyl]propoxy]-N-[4-[4-(2-methoxyphenyl)-1-piperazinyl]butyl]benzamide

> <PUBCHEM_IUPAC_NAME_MARKUP>
3-methoxy-4-[3-[1-[8-[4-[3-[2-methoxy-4-[4-[4-(2-methoxyphenyl)piperazin-1-yl]butylcarbamoyl]phenoxy]propyl]triazol-1-yl]octyl]triazol-4-yl]propoxy]-<I>N</I>-[4-[4-(2-methoxyphenyl)piperazin-1-yl]butyl]benzamide

> <PUBCHEM_IUPAC_NAME>
3-methoxy-4-[3-[1-[8-[4-[3-[2-methoxy-4-[4-[4-(2-methoxyphenyl)piperazin-1-yl]butylcarbamoyl]phenoxy]propyl]triazol-1-yl]octyl]triazol-4-yl]propoxy]-N-[4-[4-(2-methoxyphenyl)piperazin-1-yl]butyl]benzamide

> <PUBCHEM_IUPAC_SYSTEMATIC_NAME>
3-methoxy-4-[3-[1-[8-[4-[3-[2-methoxy-4-[4-[4-(2-methoxyphenyl)piperazin-1-yl]butylcarbamoyl]phenoxy]propyl]-1,2,3-triazol-1-yl]octyl]-1,2,3-triazol-4-yl]propoxy]-N-[4-[4-(2-methoxyphenyl)piperazin-1-yl]butyl]benzamide

> <PUBCHEM_IUPAC_TRADITIONAL_NAME>
3-methoxy-4-[3-[1-[8-[4-[3-[2-methoxy-4-[4-[4-(2-methoxyphenyl)piperazino]butylcarbamoyl]phenoxy]propyl]triazol-1-yl]octyl]triazol-4-yl]propoxy]-N-[4-[4-(2-methoxyphenyl)piperazino]butyl]benzamide

> <PUBCHEM_IUPAC_INCHI>
InChI=1S/C64H90N12O8/c1-79-57-25-11-9-23-55(57)73-41-37-71(38-42-73)33-17-13-31-65-63(77)51-27-29-59(61(47-51)81-3)83-45-19-21-53-49-75(69-67-53)35-15-7-5-6-8-16-36-76-50-54(68-70-76)22-20-46-84-60-30-28-52(48-62(60)82-4)64(78)66-32-14-18-34-72-39-43-74(44-40-72)56-24-10-12-26-58(56)80-2/h9-12,23-30,47-50H,5-8,13-22,31-46H2,1-4H3,(H,65,77)(H,66,78)

> <PUBCHEM_IUPAC_INCHIKEY>
HOZYTVYXSUBCBF-UHFFFAOYSA-N

> <PUBCHEM_XLOGP3_AA>
9.3

> <PUBCHEM_EXACT_MASS>
1154.70045788

> <PUBCHEM_MOLECULAR_FORMULA>
C64H90N12O8

> <PUBCHEM_MOLECULAR_WEIGHT>
1155.5

> <PUBCHEM_OPENEYE_CAN_SMILES>
COC1=CC=CC=C1N2CCN(CC2)CCCCNC(=O)C3=CC(=C(C=C3)OCCCC4=CN(N=N4)CCCCCCCCN5C=C(N=N5)CCCOC6=C(C=C(C=C6)C(=O)NCCCCN7CCN(CC7)C8=CC=CC=C8OC)OC)OC

> <PUBCHEM_OPENEYE_ISO_SMILES>
COC1=CC=CC=C1N2CCN(CC2)CCCCNC(=O)C3=CC(=C(C=C3)OCCCC4=CN(N=N4)CCCCCCCCN5C=C(N=N5)CCCOC6=C(C=C(C=C6)C(=O)NCCCCN7CCN(CC7)C8=CC=CC=C8OC)OC)OC

> <PUBCHEM_CACTVS_TPSA>
188

> <PUBCHEM_MONOISOTOPIC_WEIGHT>
1154.70045788

> <PUBCHEM_TOTAL_CHARGE>
0

> <PUBCHEM_HEAVY_ATOM_COUNT>
84

> <PUBCHEM_ATOM_DEF_STEREO_COUNT>
0

> <PUBCHEM_ATOM_UDEF_STEREO_COUNT>
0

> <PUBCHEM_BOND_DEF_STEREO_COUNT>
0

> <PUBCHEM_BOND_UDEF_STEREO_COUNT>
0

> <PUBCHEM_ISOTOPIC_ATOM_COUNT>
0

> <PUBCHEM_COMPONENT_COUNT>
1

> <PUBCHEM_CACTVS_TAUTO_COUNT>
-1

> <PUBCHEM_COORDINATE_TYPE>
1
5
255

> <PUBCHEM_BONDANNOTATIONS>
15  17  8
15  69  8
16  18  8
16  70  8
17  19  8
18  20  8
19  75  8
20  76  8
33  39  8
33  41  8
34  40  8
34  42  8
39  43  8
40  44  8
41  45  8
42  46  8
43  47  8
44  48  8
45  47  8
46  48  8
59  63  8
59  65  8
60  64  8
60  66  8
63  67  8
64  68  8
65  71  8
66  72  8
67  73  8
68  74  8
69  75  8
70  76  8
71  73  8
72  74  8

$$$$
