3153
  -OEChem-09292322032D

 26 27  0     1  0  0  0  0  0999 V2000
    2.0000   -0.9879    0.0000 O   0  0  0  0  0  0  0  0  0  0  0  0
    2.0000    1.0121    0.0000 O   0  0  0  0  0  0  0  0  0  0  0  0
    7.2622   -1.0121    0.0000 N   0  0  0  0  0  0  0  0  0  0  0  0
    6.3981   -0.5087    0.0000 C   0  0  3  0  0  0  0  0  0  0  0  0
    6.3981    0.5329    0.0000 C   0  0  0  0  0  0  0  0  0  0  0  0
    5.4920   -1.0226    0.0000 C   0  0  0  0  0  0  0  0  0  0  0  0
    5.4920    1.0467    0.0000 C   0  0  0  0  0  0  0  0  0  0  0  0
    4.5981   -0.4879    0.0000 C   0  0  0  0  0  0  0  0  0  0  0  0
    4.5981    0.5121    0.0000 C   0  0  0  0  0  0  0  0  0  0  0  0
    3.7320   -0.9879    0.0000 C   0  0  0  0  0  0  0  0  0  0  0  0
    3.7320    1.0121    0.0000 C   0  0  0  0  0  0  0  0  0  0  0  0
    2.8660   -0.4879    0.0000 C   0  0  0  0  0  0  0  0  0  0  0  0
    2.8660    0.5121    0.0000 C   0  0  0  0  0  0  0  0  0  0  0  0
    6.9356   -0.1998    0.0000 H   0  0  0  0  0  0  0  0  0  0  0  0
    7.0089    0.4268    0.0000 H   0  0  0  0  0  0  0  0  0  0  0  0
    6.6071    1.1166    0.0000 H   0  0  0  0  0  0  0  0  0  0  0  0
    5.0874   -1.4924    0.0000 H   0  0  0  0  0  0  0  0  0  0  0  0
    5.8856   -1.5016    0.0000 H   0  0  0  0  0  0  0  0  0  0  0  0
    5.8856    1.5258    0.0000 H   0  0  0  0  0  0  0  0  0  0  0  0
    5.0874    1.5165    0.0000 H   0  0  0  0  0  0  0  0  0  0  0  0
    3.7320   -1.6079    0.0000 H   0  0  0  0  0  0  0  0  0  0  0  0
    3.7320    1.6321    0.0000 H   0  0  0  0  0  0  0  0  0  0  0  0
    7.8003   -0.7041    0.0000 H   0  0  0  0  0  0  0  0  0  0  0  0
    7.2598   -1.6321    0.0000 H   0  0  0  0  0  0  0  0  0  0  0  0
    2.0000   -1.6079    0.0000 H   0  0  0  0  0  0  0  0  0  0  0  0
    2.0000    1.6321    0.0000 H   0  0  0  0  0  0  0  0  0  0  0  0
  1 12  1  0  0  0  0
  1 25  1  0  0  0  0
  2 13  1  0  0  0  0
  2 26  1  0  0  0  0
  3  4  1  0  0  0  0
  3 23  1  0  0  0  0
  3 24  1  0  0  0  0
  4  5  1  0  0  0  0
  4  6  1  0  0  0  0
  4 14  1  0  0  0  0
  5  7  1  0  0  0  0
  5 15  1  0  0  0  0
  5 16  1  0  0  0  0
  6  8  1  0  0  0  0
  6 17  1  0  0  0  0
  6 18  1  0  0  0  0
  7  9  1  0  0  0  0
  7 19  1  0  0  0  0
  7 20  1  0  0  0  0
  8  9  1  0  0  0  0
  8 10  2  0  0  0  0
  9 11  2  0  0  0  0
 10 12  1  0  0  0  0
 10 21  1  0  0  0  0
 11 13  1  0  0  0  0
 11 22  1  0  0  0  0
 12 13  2  0  0  0  0
M  END
> <PUBCHEM_COMPOUND_CID>
3153

> <PUBCHEM_COMPOUND_CANONICALIZED>
1

> <PUBCHEM_CACTVS_COMPLEXITY>
186

> <PUBCHEM_CACTVS_HBOND_ACCEPTOR>
3

> <PUBCHEM_CACTVS_HBOND_DONOR>
3

> <PUBCHEM_CACTVS_ROTATABLE_BOND>
0

> <PUBCHEM_CACTVS_SUBSKEYS>
AAADccByMAAAAAAAAAAAAAAAAAAAAAAAAAAwYAAAAAAAAADBAAAAHgAQCAAADCzBmAQwBoBAAgCAAiBCAAACAAAgIAAAiIAGiIgJJiKCkROAcAEk0BEJmAeQ0LEOoAABAAAQQABQAAKAACCAAAAAAAAAAA==

> <PUBCHEM_IUPAC_OPENEYE_NAME>
2-aminotetralin-6,7-diol

> <PUBCHEM_IUPAC_CAS_NAME>
6-amino-5,6,7,8-tetrahydronaphthalene-2,3-diol

> <PUBCHEM_IUPAC_NAME_MARKUP>
6-amino-5,6,7,8-tetrahydronaphthalene-2,3-diol

> <PUBCHEM_IUPAC_NAME>
6-amino-5,6,7,8-tetrahydronaphthalene-2,3-diol

> <PUBCHEM_IUPAC_SYSTEMATIC_NAME>
6-azanyl-5,6,7,8-tetrahydronaphthalene-2,3-diol

> <PUBCHEM_IUPAC_TRADITIONAL_NAME>
2-aminotetralin-6,7-diol

> <PUBCHEM_IUPAC_INCHI>
InChI=1S/C10H13NO2/c11-8-2-1-6-4-9(12)10(13)5-7(6)3-8/h4-5,8,12-13H,1-3,11H2

> <PUBCHEM_IUPAC_INCHIKEY>
ASXGAOFCKGHGMF-UHFFFAOYSA-N

> <PUBCHEM_XLOGP3>
1.4

> <PUBCHEM_EXACT_MASS>
179.094628657

> <PUBCHEM_MOLECULAR_FORMULA>
C10H13NO2

> <PUBCHEM_MOLECULAR_WEIGHT>
179.22

> <PUBCHEM_OPENEYE_CAN_SMILES>
C1CC2=CC(=C(C=C2CC1N)O)O

> <PUBCHEM_OPENEYE_ISO_SMILES>
C1CC2=CC(=C(C=C2CC1N)O)O

> <PUBCHEM_CACTVS_TPSA>
66.5

> <PUBCHEM_MONOISOTOPIC_WEIGHT>
179.094628657

> <PUBCHEM_TOTAL_CHARGE>
0

> <PUBCHEM_HEAVY_ATOM_COUNT>
13

> <PUBCHEM_ATOM_DEF_STEREO_COUNT>
0

> <PUBCHEM_ATOM_UDEF_STEREO_COUNT>
1

> <PUBCHEM_BOND_DEF_STEREO_COUNT>
0

> <PUBCHEM_BOND_UDEF_STEREO_COUNT>
0

> <PUBCHEM_ISOTOPIC_ATOM_COUNT>
0

> <PUBCHEM_COMPONENT_COUNT>
1

> <PUBCHEM_CACTVS_TAUTO_COUNT>
53

> <PUBCHEM_COORDINATE_TYPE>
1
5
255

> <PUBCHEM_BONDANNOTATIONS>
10  12  8
11  13  8
12  13  8
4  3  3
8  10  8
8  9  8
9  11  8

$$$$
