145985289
  -OEChem-09292322392D

 71 76  0     1  0  0  0  0  0999 V2000
    4.6660   -0.0780    0.0000 S   0  0  0  0  0  0  0  0  0  0  0  0
   12.9479   -1.1046    0.0000 S   0  0  0  0  0  0  0  0  0  0  0  0
    5.6660   -0.0780    0.0000 O   0  0  0  0  0  0  0  0  0  0  0  0
    3.6660   -0.0780    0.0000 O   0  0  0  0  0  0  0  0  0  0  0  0
    4.6660    0.9220    0.0000 N   0  0  3  0  0  0  0  0  0  0  0  0
    8.0615    0.4743    0.0000 N   0  0  0  0  0  0  0  0  0  0  0  0
    9.6252   -0.7727    0.0000 N   0  0  0  0  0  0  0  0  0  0  0  0
    5.5321   -2.5780    0.0000 N   0  0  0  0  0  0  0  0  0  0  0  0
    5.5670    1.3559    0.0000 C   0  0  1  0  0  0  0  0  0  0  0  0
    5.7895    2.3308    0.0000 C   0  0  0  0  0  0  0  0  0  0  0  0
    6.3488    0.7324    0.0000 C   0  0  0  0  0  0  0  0  0  0  0  0
    5.1660    3.1126    0.0000 C   0  0  0  0  0  0  0  0  0  0  0  0
    7.2797    1.0977    0.0000 C   0  0  0  0  0  0  0  0  0  0  0  0
    3.7651    1.3559    0.0000 C   0  0  0  0  0  0  0  0  0  0  0  0
    4.1660    3.1126    0.0000 C   0  0  0  0  0  0  0  0  0  0  0  0
    3.5425    2.3308    0.0000 C   0  0  0  0  0  0  0  0  0  0  0  0
    8.9924    0.8396    0.0000 C   0  0  0  0  0  0  0  0  0  0  0  0
    7.9125   -0.5146    0.0000 C   0  0  0  0  0  0  0  0  0  0  0  0
    9.7742    0.2161    0.0000 C   0  0  0  0  0  0  0  0  0  0  0  0
    8.6943   -1.1381    0.0000 C   0  0  0  0  0  0  0  0  0  0  0  0
    4.6660   -1.0780    0.0000 C   0  0  0  0  0  0  0  0  0  0  0  0
   10.4070   -1.3962    0.0000 C   0  0  0  0  0  0  0  0  0  0  0  0
    3.8000   -1.5780    0.0000 C   0  0  0  0  0  0  0  0  0  0  0  0
   11.3379   -1.0309    0.0000 C   0  0  0  0  0  0  0  0  0  0  0  0
    5.5321   -1.5780    0.0000 C   0  0  0  0  0  0  0  0  0  0  0  0
   10.2580   -2.3850    0.0000 C   0  0  0  0  0  0  0  0  0  0  0  0
    3.8000   -2.5780    0.0000 C   0  0  0  0  0  0  0  0  0  0  0  0
   12.1197   -1.6544    0.0000 C   0  0  0  0  0  0  0  0  0  0  0  0
    2.9061   -1.0433    0.0000 C   0  0  0  0  0  0  0  0  0  0  0  0
   11.6896   -0.1011    0.0000 C   0  0  0  0  0  0  0  0  0  0  0  0
   11.0398   -3.0085    0.0000 C   0  0  0  0  0  0  0  0  0  0  0  0
    4.6660   -3.0780    0.0000 C   0  0  0  0  0  0  0  0  0  0  0  0
   11.9707   -2.6432    0.0000 C   0  0  0  0  0  0  0  0  0  0  0  0
    2.9061   -3.1126    0.0000 C   0  0  0  0  0  0  0  0  0  0  0  0
    2.0000   -1.5572    0.0000 C   0  0  0  0  0  0  0  0  0  0  0  0
   12.6827   -0.1466    0.0000 C   0  0  0  0  0  0  0  0  0  0  0  0
    2.0000   -2.5988    0.0000 C   0  0  0  0  0  0  0  0  0  0  0  0
    5.4976    0.7398    0.0000 H   0  0  0  0  0  0  0  0  0  0  0  0
    6.3481    2.0618    0.0000 H   0  0  0  0  0  0  0  0  0  0  0  0
    6.1761    2.8156    0.0000 H   0  0  0  0  0  0  0  0  0  0  0  0
    5.8840    0.3222    0.0000 H   0  0  0  0  0  0  0  0  0  0  0  0
    6.6721    0.2034    0.0000 H   0  0  0  0  0  0  0  0  0  0  0  0
    5.7246    3.3817    0.0000 H   0  0  0  0  0  0  0  0  0  0  0  0
    5.0281    3.7171    0.0000 H   0  0  0  0  0  0  0  0  0  0  0  0
    7.7446    1.5080    0.0000 H   0  0  0  0  0  0  0  0  0  0  0  0
    6.9564    1.6268    0.0000 H   0  0  0  0  0  0  0  0  0  0  0  0
    3.1451    1.3559    0.0000 H   0  0  0  0  0  0  0  0  0  0  0  0
    3.6271    0.7514    0.0000 H   0  0  0  0  0  0  0  0  0  0  0  0
    4.3040    3.7171    0.0000 H   0  0  0  0  0  0  0  0  0  0  0  0
    3.6074    3.3817    0.0000 H   0  0  0  0  0  0  0  0  0  0  0  0
    3.1560    2.8156    0.0000 H   0  0  0  0  0  0  0  0  0  0  0  0
    2.9839    2.0618    0.0000 H   0  0  0  0  0  0  0  0  0  0  0  0
    9.4573    1.2498    0.0000 H   0  0  0  0  0  0  0  0  0  0  0  0
    8.6691    1.3686    0.0000 H   0  0  0  0  0  0  0  0  0  0  0  0
    7.3248   -0.3171    0.0000 H   0  0  0  0  0  0  0  0  0  0  0  0
    7.6160   -1.0591    0.0000 H   0  0  0  0  0  0  0  0  0  0  0  0
   10.3620    0.0186    0.0000 H   0  0  0  0  0  0  0  0  0  0  0  0
   10.0708    0.7606    0.0000 H   0  0  0  0  0  0  0  0  0  0  0  0
    8.2295   -1.5483    0.0000 H   0  0  0  0  0  0  0  0  0  0  0  0
    9.0176   -1.6671    0.0000 H   0  0  0  0  0  0  0  0  0  0  0  0
    6.0690   -1.2680    0.0000 H   0  0  0  0  0  0  0  0  0  0  0  0
    9.6808   -2.6116    0.0000 H   0  0  0  0  0  0  0  0  0  0  0  0
    2.9132   -0.4234    0.0000 H   0  0  0  0  0  0  0  0  0  0  0  0
   11.3490    0.4169    0.0000 H   0  0  0  0  0  0  0  0  0  0  0  0
   10.9474   -3.6216    0.0000 H   0  0  0  0  0  0  0  0  0  0  0  0
    4.6660   -3.6980    0.0000 H   0  0  0  0  0  0  0  0  0  0  0  0
   12.4554   -3.0298    0.0000 H   0  0  0  0  0  0  0  0  0  0  0  0
    2.9132   -3.7326    0.0000 H   0  0  0  0  0  0  0  0  0  0  0  0
    1.4643   -1.2451    0.0000 H   0  0  0  0  0  0  0  0  0  0  0  0
   13.0692    0.3382    0.0000 H   0  0  0  0  0  0  0  0  0  0  0  0
    1.4643   -2.9109    0.0000 H   0  0  0  0  0  0  0  0  0  0  0  0
  1  3  2  0  0  0  0
  1  4  2  0  0  0  0
  1  5  1  0  0  0  0
  1 21  1  0  0  0  0
  2 28  1  0  0  0  0
  2 36  1  0  0  0  0
  5  9  1  0  0  0  0
  5 14  1  0  0  0  0
  6 13  1  0  0  0  0
  6 17  1  0  0  0  0
  6 18  1  0  0  0  0
  7 19  1  0  0  0  0
  7 20  1  0  0  0  0
  7 22  1  0  0  0  0
  8 25  1  0  0  0  0
  8 32  2  0  0  0  0
  9 10  1  0  0  0  0
  9 11  1  1  0  0  0
  9 38  1  0  0  0  0
 10 12  1  0  0  0  0
 10 39  1  0  0  0  0
 10 40  1  0  0  0  0
 11 13  1  0  0  0  0
 11 41  1  0  0  0  0
 11 42  1  0  0  0  0
 12 15  1  0  0  0  0
 12 43  1  0  0  0  0
 12 44  1  0  0  0  0
 13 45  1  0  0  0  0
 13 46  1  0  0  0  0
 14 16  1  0  0  0  0
 14 47  1  0  0  0  0
 14 48  1  0  0  0  0
 15 16  1  0  0  0  0
 15 49  1  0  0  0  0
 15 50  1  0  0  0  0
 16 51  1  0  0  0  0
 16 52  1  0  0  0  0
 17 19  1  0  0  0  0
 17 53  1  0  0  0  0
 17 54  1  0  0  0  0
 18 20  1  0  0  0  0
 18 55  1  0  0  0  0
 18 56  1  0  0  0  0
 19 57  1  0  0  0  0
 19 58  1  0  0  0  0
 20 59  1  0  0  0  0
 20 60  1  0  0  0  0
 21 23  1  0  0  0  0
 21 25  2  0  0  0  0
 22 24  2  0  0  0  0
 22 26  1  0  0  0  0
 23 27  1  0  0  0  0
 23 29  2  0  0  0  0
 24 28  1  0  0  0  0
 24 30  1  0  0  0  0
 25 61  1  0  0  0  0
 26 31  2  0  0  0  0
 26 62  1  0  0  0  0
 27 32  1  0  0  0  0
 27 34  2  0  0  0  0
 28 33  2  0  0  0  0
 29 35  1  0  0  0  0
 29 63  1  0  0  0  0
 30 36  2  0  0  0  0
 30 64  1  0  0  0  0
 31 33  1  0  0  0  0
 31 65  1  0  0  0  0
 32 66  1  0  0  0  0
 33 67  1  0  0  0  0
 34 37  1  0  0  0  0
 34 68  1  0  0  0  0
 35 37  2  0  0  0  0
 35 69  1  0  0  0  0
 36 70  1  0  0  0  0
 37 71  1  0  0  0  0
M  END
> <PUBCHEM_COMPOUND_CID>
145985289

> <PUBCHEM_COMPOUND_CANONICALIZED>
1

> <PUBCHEM_CACTVS_COMPLEXITY>
843

> <PUBCHEM_CACTVS_HBOND_ACCEPTOR>
7

> <PUBCHEM_CACTVS_HBOND_DONOR>
0

> <PUBCHEM_CACTVS_ROTATABLE_BOND>
6

> <PUBCHEM_CACTVS_SUBSKEYS>
AAADcfB7sABgAAAAAAAAAAAAAAAAASAAAAA8eIEABYAAAEix/gAAHAQAQAAADCjFWgS8wdMIEAqkAjRnRHDDgLAxCjBI2DwoZJgIYOLg0ZGUIAxggADoyAcQgIAOgAAAACAWAAAAAAAAQCwAAAAAAAAAAA==

> <PUBCHEM_IUPAC_OPENEYE_NAME>
4-[(2S)-2-[2-[4-(benzothiophen-4-yl)piperazin-1-yl]ethyl]azepan-1-yl]sulfonylisoquinoline

> <PUBCHEM_IUPAC_CAS_NAME>
4-[[(2S)-2-[2-[4-(1-benzothiophen-4-yl)-1-piperazinyl]ethyl]-1-azepanyl]sulfonyl]isoquinoline

> <PUBCHEM_IUPAC_NAME_MARKUP>
4-[(2<I>S</I>)-2-[2-[4-(1-benzothiophen-4-yl)piperazin-1-yl]ethyl]azepan-1-yl]sulfonylisoquinoline

> <PUBCHEM_IUPAC_NAME>
4-[(2S)-2-[2-[4-(1-benzothiophen-4-yl)piperazin-1-yl]ethyl]azepan-1-yl]sulfonylisoquinoline

> <PUBCHEM_IUPAC_SYSTEMATIC_NAME>
4-[(2S)-2-[2-[4-(1-benzothiophen-4-yl)piperazin-1-yl]ethyl]azepan-1-yl]sulfonylisoquinoline

> <PUBCHEM_IUPAC_TRADITIONAL_NAME>
4-[(2S)-2-[2-[4-(benzothiophen-4-yl)piperazino]ethyl]azepan-1-yl]sulfonylisoquinoline

> <PUBCHEM_IUPAC_INCHI>
InChI=1S/C29H34N4O2S2/c34-37(35,29-22-30-21-23-7-3-4-9-25(23)29)33-14-5-1-2-8-24(33)12-15-31-16-18-32(19-17-31)27-10-6-11-28-26(27)13-20-36-28/h3-4,6-7,9-11,13,20-22,24H,1-2,5,8,12,14-19H2/t24-/m0/s1

> <PUBCHEM_IUPAC_INCHIKEY>
UMUJLLXUJDETSQ-DEOSSOPVSA-N

> <PUBCHEM_XLOGP3_AA>
5.5

> <PUBCHEM_EXACT_MASS>
534.21231869

> <PUBCHEM_MOLECULAR_FORMULA>
C29H34N4O2S2

> <PUBCHEM_MOLECULAR_WEIGHT>
534.7

> <PUBCHEM_OPENEYE_CAN_SMILES>
C1CCC(N(CC1)S(=O)(=O)C2=CN=CC3=CC=CC=C32)CCN4CCN(CC4)C5=C6C=CSC6=CC=C5

> <PUBCHEM_OPENEYE_ISO_SMILES>
C1CC[C@H](N(CC1)S(=O)(=O)C2=CN=CC3=CC=CC=C32)CCN4CCN(CC4)C5=C6C=CSC6=CC=C5

> <PUBCHEM_CACTVS_TPSA>
93.4

> <PUBCHEM_MONOISOTOPIC_WEIGHT>
534.21231869

> <PUBCHEM_TOTAL_CHARGE>
0

> <PUBCHEM_HEAVY_ATOM_COUNT>
37

> <PUBCHEM_ATOM_DEF_STEREO_COUNT>
1

> <PUBCHEM_ATOM_UDEF_STEREO_COUNT>
0

> <PUBCHEM_BOND_DEF_STEREO_COUNT>
0

> <PUBCHEM_BOND_UDEF_STEREO_COUNT>
0

> <PUBCHEM_ISOTOPIC_ATOM_COUNT>
0

> <PUBCHEM_COMPONENT_COUNT>
1

> <PUBCHEM_CACTVS_TAUTO_COUNT>
-1

> <PUBCHEM_COORDINATE_TYPE>
1
5
255

> <PUBCHEM_BONDANNOTATIONS>
2  28  8
2  36  8
21  23  8
21  25  8
22  24  8
22  26  8
23  27  8
23  29  8
24  28  8
24  30  8
26  31  8
27  32  8
27  34  8
28  33  8
29  35  8
30  36  8
31  33  8
34  37  8
35  37  8
8  25  8
8  32  8
9  11  5

$$$$
