45269000
  -OEChem-09292322282D

 47 51  0     0  0  0  0  0  0999 V2000
    7.4173   -0.4950    0.0000 O   0  0  0  0  0  0  0  0  0  0  0  0
   10.3230   -3.9634    0.0000 O   0  0  0  0  0  0  0  0  0  0  0  0
    3.8880    0.9754    0.0000 N   0  0  0  0  0  0  0  0  0  0  0  0
    5.6960   -0.9562    0.0000 N   0  0  0  0  0  0  0  0  0  0  0  0
    6.7787   -2.1586    0.0000 N   0  0  0  0  0  0  0  0  0  0  0  0
    4.2948    0.0619    0.0000 C   0  0  0  0  0  0  0  0  0  0  0  0
    5.2893   -0.0427    0.0000 C   0  0  0  0  0  0  0  0  0  0  0  0
    2.9155    1.1812    0.0000 C   0  0  0  0  0  0  0  0  0  0  0  0
    4.3858    1.8359    0.0000 C   0  0  0  0  0  0  0  0  0  0  0  0
    5.1960   -1.8222    0.0000 C   0  0  0  0  0  0  0  0  0  0  0  0
    5.8652   -2.5654    0.0000 C   0  0  0  0  0  0  0  0  0  0  0  0
    2.8090    2.1696    0.0000 C   0  0  0  0  0  0  0  0  0  0  0  0
    3.7226    2.5763    0.0000 C   0  0  0  0  0  0  0  0  0  0  0  0
    6.6742   -1.1641    0.0000 C   0  0  0  0  0  0  0  0  0  0  0  0
    7.6447   -2.6586    0.0000 C   0  0  0  0  0  0  0  0  0  0  0  0
    2.0000    2.7574    0.0000 C   0  0  0  0  0  0  0  0  0  0  0  0
    3.8271    3.5709    0.0000 C   0  0  0  0  0  0  0  0  0  0  0  0
    8.5108   -2.1586    0.0000 C   0  0  0  0  0  0  0  0  0  0  0  0
    2.1045    3.7519    0.0000 C   0  0  0  0  0  0  0  0  0  0  0  0
    3.0181    4.1586    0.0000 C   0  0  0  0  0  0  0  0  0  0  0  0
    7.6447   -3.6586    0.0000 C   0  0  0  0  0  0  0  0  0  0  0  0
    9.3768   -2.6586    0.0000 C   0  0  0  0  0  0  0  0  0  0  0  0
    9.3768   -3.6586    0.0000 C   0  0  0  0  0  0  0  0  0  0  0  0
    8.5108   -4.1586    0.0000 C   0  0  0  0  0  0  0  0  0  0  0  0
   10.3230   -2.3539    0.0000 C   0  0  0  0  0  0  0  0  0  0  0  0
   10.9066   -3.1586    0.0000 C   0  0  0  0  0  0  0  0  0  0  0  0
    3.6932   -0.0881    0.0000 H   0  0  0  0  0  0  0  0  0  0  0  0
    4.3380   -0.5566    0.0000 H   0  0  0  0  0  0  0  0  0  0  0  0
    5.8909    0.1073    0.0000 H   0  0  0  0  0  0  0  0  0  0  0  0
    5.2460    0.5758    0.0000 H   0  0  0  0  0  0  0  0  0  0  0  0
    2.2955    1.1800    0.0000 H   0  0  0  0  0  0  0  0  0  0  0  0
    2.8516    0.5645    0.0000 H   0  0  0  0  0  0  0  0  0  0  0  0
    4.8869    1.4707    0.0000 H   0  0  0  0  0  0  0  0  0  0  0  0
    4.8016    2.2958    0.0000 H   0  0  0  0  0  0  0  0  0  0  0  0
    4.6944   -1.4578    0.0000 H   0  0  0  0  0  0  0  0  0  0  0  0
    4.7812   -2.2830    0.0000 H   0  0  0  0  0  0  0  0  0  0  0  0
    5.3636   -2.9298    0.0000 H   0  0  0  0  0  0  0  0  0  0  0  0
    6.1752   -3.1023    0.0000 H   0  0  0  0  0  0  0  0  0  0  0  0
    1.4336    2.5052    0.0000 H   0  0  0  0  0  0  0  0  0  0  0  0
    4.3935    3.8230    0.0000 H   0  0  0  0  0  0  0  0  0  0  0  0
    8.5108   -1.5386    0.0000 H   0  0  0  0  0  0  0  0  0  0  0  0
    1.6029    4.1163    0.0000 H   0  0  0  0  0  0  0  0  0  0  0  0
    3.0829    4.7752    0.0000 H   0  0  0  0  0  0  0  0  0  0  0  0
    7.1078   -3.9686    0.0000 H   0  0  0  0  0  0  0  0  0  0  0  0
    8.5108   -4.7786    0.0000 H   0  0  0  0  0  0  0  0  0  0  0  0
   10.5156   -1.7646    0.0000 H   0  0  0  0  0  0  0  0  0  0  0  0
   11.5266   -3.1586    0.0000 H   0  0  0  0  0  0  0  0  0  0  0  0
  1 14  2  0  0  0  0
  2 23  1  0  0  0  0
  2 26  1  0  0  0  0
  3  6  1  0  0  0  0
  3  8  1  0  0  0  0
  3  9  1  0  0  0  0
  4  7  1  0  0  0  0
  4 10  1  0  0  0  0
  4 14  1  0  0  0  0
  5 11  1  0  0  0  0
  5 14  1  0  0  0  0
  5 15  1  0  0  0  0
  6  7  1  0  0  0  0
  6 27  1  0  0  0  0
  6 28  1  0  0  0  0
  7 29  1  0  0  0  0
  7 30  1  0  0  0  0
  8 12  1  0  0  0  0
  8 31  1  0  0  0  0
  8 32  1  0  0  0  0
  9 13  1  0  0  0  0
  9 33  1  0  0  0  0
  9 34  1  0  0  0  0
 10 11  1  0  0  0  0
 10 35  1  0  0  0  0
 10 36  1  0  0  0  0
 11 37  1  0  0  0  0
 11 38  1  0  0  0  0
 12 13  1  0  0  0  0
 12 16  2  0  0  0  0
 13 17  2  0  0  0  0
 15 18  2  0  0  0  0
 15 21  1  0  0  0  0
 16 19  1  0  0  0  0
 16 39  1  0  0  0  0
 17 20  1  0  0  0  0
 17 40  1  0  0  0  0
 18 22  1  0  0  0  0
 18 41  1  0  0  0  0
 19 20  2  0  0  0  0
 19 42  1  0  0  0  0
 20 43  1  0  0  0  0
 21 24  2  0  0  0  0
 21 44  1  0  0  0  0
 22 23  2  0  0  0  0
 22 25  1  0  0  0  0
 23 24  1  0  0  0  0
 24 45  1  0  0  0  0
 25 26  2  0  0  0  0
 25 46  1  0  0  0  0
 26 47  1  0  0  0  0
M  END
> <PUBCHEM_COMPOUND_CID>
45269000

> <PUBCHEM_COMPOUND_CANONICALIZED>
1

> <PUBCHEM_CACTVS_COMPLEXITY>
513

> <PUBCHEM_CACTVS_HBOND_ACCEPTOR>
3

> <PUBCHEM_CACTVS_HBOND_DONOR>
0

> <PUBCHEM_CACTVS_ROTATABLE_BOND>
4

> <PUBCHEM_CACTVS_SUBSKEYS>
AAADceB7MAAAAAAAAAAAAAAAAAAAAWLEgAAwYAAAAAAAAFgB9AAAHgAAAAAADAzhmAYxxsMABECIAqxS0ACCCAAlIgAIiAEObMiMZjLEtZuWOSjsxhPI6ae82aOegEAAQAAYAAAAgACAADAAAAAAAAAAAA==

> <PUBCHEM_IUPAC_OPENEYE_NAME>
1-(benzofuran-5-yl)-3-(2-isoindolin-2-ylethyl)imidazolidin-2-one

> <PUBCHEM_IUPAC_CAS_NAME>
1-(5-benzofuranyl)-3-[2-(1,3-dihydroisoindol-2-yl)ethyl]-2-imidazolidinone

> <PUBCHEM_IUPAC_NAME_MARKUP>
1-(1-benzofuran-5-yl)-3-[2-(1,3-dihydroisoindol-2-yl)ethyl]imidazolidin-2-one

> <PUBCHEM_IUPAC_NAME>
1-(1-benzofuran-5-yl)-3-[2-(1,3-dihydroisoindol-2-yl)ethyl]imidazolidin-2-one

> <PUBCHEM_IUPAC_SYSTEMATIC_NAME>
1-(1-benzofuran-5-yl)-3-[2-(1,3-dihydroisoindol-2-yl)ethyl]imidazolidin-2-one

> <PUBCHEM_IUPAC_TRADITIONAL_NAME>
1-(benzofuran-5-yl)-3-(2-isoindolin-2-ylethyl)-2-imidazolidinone

> <PUBCHEM_IUPAC_INCHI>
InChI=1S/C21H21N3O2/c25-21-23(9-8-22-14-17-3-1-2-4-18(17)15-22)10-11-24(21)19-5-6-20-16(13-19)7-12-26-20/h1-7,12-13H,8-11,14-15H2

> <PUBCHEM_IUPAC_INCHIKEY>
HHTPKGOFGTYZBP-UHFFFAOYSA-N

> <PUBCHEM_XLOGP3_AA>
2.6

> <PUBCHEM_EXACT_MASS>
347.16337692

> <PUBCHEM_MOLECULAR_FORMULA>
C21H21N3O2

> <PUBCHEM_MOLECULAR_WEIGHT>
347.4

> <PUBCHEM_OPENEYE_CAN_SMILES>
C1CN(C(=O)N1CCN2CC3=CC=CC=C3C2)C4=CC5=C(C=C4)OC=C5

> <PUBCHEM_OPENEYE_ISO_SMILES>
C1CN(C(=O)N1CCN2CC3=CC=CC=C3C2)C4=CC5=C(C=C4)OC=C5

> <PUBCHEM_CACTVS_TPSA>
39.9

> <PUBCHEM_MONOISOTOPIC_WEIGHT>
347.16337692

> <PUBCHEM_TOTAL_CHARGE>
0

> <PUBCHEM_HEAVY_ATOM_COUNT>
26

> <PUBCHEM_ATOM_DEF_STEREO_COUNT>
0

> <PUBCHEM_ATOM_UDEF_STEREO_COUNT>
0

> <PUBCHEM_BOND_DEF_STEREO_COUNT>
0

> <PUBCHEM_BOND_UDEF_STEREO_COUNT>
0

> <PUBCHEM_ISOTOPIC_ATOM_COUNT>
0

> <PUBCHEM_COMPONENT_COUNT>
1

> <PUBCHEM_CACTVS_TAUTO_COUNT>
-1

> <PUBCHEM_COORDINATE_TYPE>
1
5
255

> <PUBCHEM_BONDANNOTATIONS>
12  13  8
12  16  8
13  17  8
15  18  8
15  21  8
16  19  8
17  20  8
18  22  8
19  20  8
2  23  8
2  26  8
21  24  8
22  23  8
22  25  8
23  24  8
25  26  8

$$$$
