60148497
  -OEChem-09292321592D

 65 69  0     1  0  0  0  0  0999 V2000
   14.0023    0.5018    0.0000 S   0  0  0  0  0  0  0  0  0  0  0  0
   10.4580    0.6970    0.0000 N   0  0  3  0  0  0  0  0  0  0  0  0
    7.8600    0.1970    0.0000 N   0  0  0  0  0  0  0  0  0  0  0  0
    6.1279   -0.8030    0.0000 N   0  0  0  0  0  0  0  0  0  0  0  0
   14.0023   -1.1077    0.0000 N   0  0  0  0  0  0  0  0  0  0  0  0
   15.5859   -0.3030    0.0000 N   0  0  0  0  0  0  0  0  0  0  0  0
    2.5836   -2.6077    0.0000 N   0  0  0  0  0  0  0  0  0  0  0  0
   11.3241    0.1970    0.0000 C   0  0  1  0  0  0  0  0  0  0  0  0
   11.3241   -0.8030    0.0000 C   0  0  0  0  0  0  0  0  0  0  0  0
   12.1901    0.6970    0.0000 C   0  0  0  0  0  0  0  0  0  0  0  0
    9.5920    0.1970    0.0000 C   0  0  0  0  0  0  0  0  0  0  0  0
    8.7260    0.6970    0.0000 C   0  0  0  0  0  0  0  0  0  0  0  0
   12.1901   -1.3030    0.0000 C   0  0  0  0  0  0  0  0  0  0  0  0
   10.4580    1.6970    0.0000 C   0  0  0  0  0  0  0  0  0  0  0  0
    6.9939    0.6970    0.0000 C   0  0  0  0  0  0  0  0  0  0  0  0
    7.8600   -0.8030    0.0000 C   0  0  0  0  0  0  0  0  0  0  0  0
   13.0561    0.1970    0.0000 C   0  0  0  0  0  0  0  0  0  0  0  0
   13.0561   -0.8030    0.0000 C   0  0  0  0  0  0  0  0  0  0  0  0
    6.1279    0.1970    0.0000 C   0  0  0  0  0  0  0  0  0  0  0  0
    6.9939   -1.3030    0.0000 C   0  0  0  0  0  0  0  0  0  0  0  0
    9.5920    2.1970    0.0000 C   0  0  0  0  0  0  0  0  0  0  0  0
    5.2619   -1.3030    0.0000 C   0  0  0  0  0  0  0  0  0  0  0  0
   14.5859   -0.3030    0.0000 C   0  0  0  0  0  0  0  0  0  0  0  0
    9.5920    3.1970    0.0000 C   0  0  0  0  0  0  0  0  0  0  0  0
    4.3958   -0.8030    0.0000 C   0  0  0  0  0  0  0  0  0  0  0  0
    5.2619   -2.3030    0.0000 C   0  0  0  0  0  0  0  0  0  0  0  0
    3.5298   -1.3030    0.0000 C   0  0  0  0  0  0  0  0  0  0  0  0
    3.5298   -2.3030    0.0000 C   0  0  0  0  0  0  0  0  0  0  0  0
    4.3958   -2.8030    0.0000 C   0  0  0  0  0  0  0  0  0  0  0  0
    2.5836   -0.9982    0.0000 C   0  0  0  0  0  0  0  0  0  0  0  0
    2.0000   -1.8030    0.0000 C   0  0  0  0  0  0  0  0  0  0  0  0
   11.3241    0.8170    0.0000 H   0  0  0  0  0  0  0  0  0  0  0  0
   10.7135   -0.6953    0.0000 H   0  0  0  0  0  0  0  0  0  0  0  0
   11.1120   -1.3856    0.0000 H   0  0  0  0  0  0  0  0  0  0  0  0
   12.5886    1.1720    0.0000 H   0  0  0  0  0  0  0  0  0  0  0  0
   11.7916    1.1720    0.0000 H   0  0  0  0  0  0  0  0  0  0  0  0
    9.1935   -0.2779    0.0000 H   0  0  0  0  0  0  0  0  0  0  0  0
    9.9905   -0.2779    0.0000 H   0  0  0  0  0  0  0  0  0  0  0  0
    9.1245    1.1720    0.0000 H   0  0  0  0  0  0  0  0  0  0  0  0
    8.3274    1.1720    0.0000 H   0  0  0  0  0  0  0  0  0  0  0  0
   11.7916   -1.7779    0.0000 H   0  0  0  0  0  0  0  0  0  0  0  0
   12.5886   -1.7779    0.0000 H   0  0  0  0  0  0  0  0  0  0  0  0
   11.0686    1.5894    0.0000 H   0  0  0  0  0  0  0  0  0  0  0  0
   10.6701    2.2796    0.0000 H   0  0  0  0  0  0  0  0  0  0  0  0
    7.3925    1.1720    0.0000 H   0  0  0  0  0  0  0  0  0  0  0  0
    6.5954    1.1720    0.0000 H   0  0  0  0  0  0  0  0  0  0  0  0
    8.0720   -1.3856    0.0000 H   0  0  0  0  0  0  0  0  0  0  0  0
    8.4705   -0.6953    0.0000 H   0  0  0  0  0  0  0  0  0  0  0  0
    5.9158    0.7796    0.0000 H   0  0  0  0  0  0  0  0  0  0  0  0
    5.5173    0.0894    0.0000 H   0  0  0  0  0  0  0  0  0  0  0  0
    6.5954   -1.7779    0.0000 H   0  0  0  0  0  0  0  0  0  0  0  0
    7.3925   -1.7779    0.0000 H   0  0  0  0  0  0  0  0  0  0  0  0
    8.9814    2.3047    0.0000 H   0  0  0  0  0  0  0  0  0  0  0  0
    9.3799    1.6144    0.0000 H   0  0  0  0  0  0  0  0  0  0  0  0
   10.2120    3.1970    0.0000 H   0  0  0  0  0  0  0  0  0  0  0  0
    9.5920    3.8170    0.0000 H   0  0  0  0  0  0  0  0  0  0  0  0
    8.9720    3.1970    0.0000 H   0  0  0  0  0  0  0  0  0  0  0  0
    4.3958   -0.1830    0.0000 H   0  0  0  0  0  0  0  0  0  0  0  0
    5.7988   -2.6130    0.0000 H   0  0  0  0  0  0  0  0  0  0  0  0
    4.3958   -3.4230    0.0000 H   0  0  0  0  0  0  0  0  0  0  0  0
   15.8959   -0.8399    0.0000 H   0  0  0  0  0  0  0  0  0  0  0  0
   15.8959    0.2340    0.0000 H   0  0  0  0  0  0  0  0  0  0  0  0
    2.3910   -0.4089    0.0000 H   0  0  0  0  0  0  0  0  0  0  0  0
    2.3910   -3.1970    0.0000 H   0  0  0  0  0  0  0  0  0  0  0  0
    1.3800   -1.8030    0.0000 H   0  0  0  0  0  0  0  0  0  0  0  0
  1 17  1  0  0  0  0
  1 23  1  0  0  0  0
  8  2  1  6  0  0  0
  2 11  1  0  0  0  0
  2 14  1  0  0  0  0
  3 12  1  0  0  0  0
  3 15  1  0  0  0  0
  3 16  1  0  0  0  0
  4 19  1  0  0  0  0
  4 20  1  0  0  0  0
  4 22  1  0  0  0  0
  5 18  1  0  0  0  0
  5 23  2  0  0  0  0
  6 23  1  0  0  0  0
  6 61  1  0  0  0  0
  6 62  1  0  0  0  0
  7 28  1  0  0  0  0
  7 31  1  0  0  0  0
  7 64  1  0  0  0  0
  8  9  1  0  0  0  0
  8 10  1  0  0  0  0
  8 32  1  0  0  0  0
  9 13  1  0  0  0  0
  9 33  1  0  0  0  0
  9 34  1  0  0  0  0
 10 17  1  0  0  0  0
 10 35  1  0  0  0  0
 10 36  1  0  0  0  0
 11 12  1  0  0  0  0
 11 37  1  0  0  0  0
 11 38  1  0  0  0  0
 12 39  1  0  0  0  0
 12 40  1  0  0  0  0
 13 18  1  0  0  0  0
 13 41  1  0  0  0  0
 13 42  1  0  0  0  0
 14 21  1  0  0  0  0
 14 43  1  0  0  0  0
 14 44  1  0  0  0  0
 15 19  1  0  0  0  0
 15 45  1  0  0  0  0
 15 46  1  0  0  0  0
 16 20  1  0  0  0  0
 16 47  1  0  0  0  0
 16 48  1  0  0  0  0
 17 18  2  0  0  0  0
 19 49  1  0  0  0  0
 19 50  1  0  0  0  0
 20 51  1  0  0  0  0
 20 52  1  0  0  0  0
 21 24  1  0  0  0  0
 21 53  1  0  0  0  0
 21 54  1  0  0  0  0
 22 25  2  0  0  0  0
 22 26  1  0  0  0  0
 24 55  1  0  0  0  0
 24 56  1  0  0  0  0
 24 57  1  0  0  0  0
 25 27  1  0  0  0  0
 25 58  1  0  0  0  0
 26 29  2  0  0  0  0
 26 59  1  0  0  0  0
 27 28  2  0  0  0  0
 27 30  1  0  0  0  0
 28 29  1  0  0  0  0
 29 60  1  0  0  0  0
 30 31  2  0  0  0  0
 30 63  1  0  0  0  0
 31 65  1  0  0  0  0
M  END
> <PUBCHEM_COMPOUND_CID>
60148497

> <PUBCHEM_COMPOUND_CANONICALIZED>
1

> <PUBCHEM_CACTVS_COMPLEXITY>
570

> <PUBCHEM_CACTVS_HBOND_ACCEPTOR>
6

> <PUBCHEM_CACTVS_HBOND_DONOR>
2

> <PUBCHEM_CACTVS_ROTATABLE_BOND>
7

> <PUBCHEM_CACTVS_SUBSKEYS>
AAADcfB7gABAAAAAAAAAAAAAAAAAAWLAAAA8YIAAAAAAAFgB/AAAHAQQAAAADCjBXgQ/0fPJkAikAzRnZACC8KlxCjkI2bQ4ZJiIYOLgkZGUIAhgkALIyCcQgIAOAACAQAACAAAAAQCAQAQCAAAAAAAAAA==

> <PUBCHEM_IUPAC_OPENEYE_NAME>
(6S)-N6-[2-[4-(1H-indol-5-yl)piperazin-1-yl]ethyl]-N6-propyl-4,5,6,7-tetrahydro-1,3-benzothiazole-2,6-diamine

> <PUBCHEM_IUPAC_CAS_NAME>
(6S)-N6-[2-[4-(1H-indol-5-yl)-1-piperazinyl]ethyl]-N6-propyl-4,5,6,7-tetrahydro-1,3-benzothiazole-2,6-diamine

> <PUBCHEM_IUPAC_NAME_MARKUP>
(6<I>S</I>)-6-<I>N</I>-[2-[4-(1<I>H</I>-indol-5-yl)piperazin-1-yl]ethyl]-6-<I>N</I>-propyl-4,5,6,7-tetrahydro-1,3-benzothiazole-2,6-diamine

> <PUBCHEM_IUPAC_NAME>
(6S)-6-N-[2-[4-(1H-indol-5-yl)piperazin-1-yl]ethyl]-6-N-propyl-4,5,6,7-tetrahydro-1,3-benzothiazole-2,6-diamine

> <PUBCHEM_IUPAC_SYSTEMATIC_NAME>
(6S)-N6-[2-[4-(1H-indol-5-yl)piperazin-1-yl]ethyl]-N6-propyl-4,5,6,7-tetrahydro-1,3-benzothiazole-2,6-diamine

> <PUBCHEM_IUPAC_TRADITIONAL_NAME>
[(6S)-2-amino-4,5,6,7-tetrahydro-1,3-benzothiazol-6-yl]-[2-[4-(1H-indol-5-yl)piperazino]ethyl]-propyl-amine

> <PUBCHEM_IUPAC_INCHI>
InChI=1S/C24H34N6S/c1-2-9-29(20-4-6-22-23(17-20)31-24(25)27-22)13-10-28-11-14-30(15-12-28)19-3-5-21-18(16-19)7-8-26-21/h3,5,7-8,16,20,26H,2,4,6,9-15,17H2,1H3,(H2,25,27)/t20-/m0/s1

> <PUBCHEM_IUPAC_INCHIKEY>
YQJXEYCSOAXZLM-FQEVSTJZSA-N

> <PUBCHEM_XLOGP3_AA>
4.1

> <PUBCHEM_EXACT_MASS>
438.25656628

> <PUBCHEM_MOLECULAR_FORMULA>
C24H34N6S

> <PUBCHEM_MOLECULAR_WEIGHT>
438.6

> <PUBCHEM_OPENEYE_CAN_SMILES>
CCCN(CCN1CCN(CC1)C2=CC3=C(C=C2)NC=C3)C4CCC5=C(C4)SC(=N5)N

> <PUBCHEM_OPENEYE_ISO_SMILES>
CCCN(CCN1CCN(CC1)C2=CC3=C(C=C2)NC=C3)[C@H]4CCC5=C(C4)SC(=N5)N

> <PUBCHEM_CACTVS_TPSA>
92.7

> <PUBCHEM_MONOISOTOPIC_WEIGHT>
438.25656628

> <PUBCHEM_TOTAL_CHARGE>
0

> <PUBCHEM_HEAVY_ATOM_COUNT>
31

> <PUBCHEM_ATOM_DEF_STEREO_COUNT>
1

> <PUBCHEM_ATOM_UDEF_STEREO_COUNT>
0

> <PUBCHEM_BOND_DEF_STEREO_COUNT>
0

> <PUBCHEM_BOND_UDEF_STEREO_COUNT>
0

> <PUBCHEM_ISOTOPIC_ATOM_COUNT>
0

> <PUBCHEM_COMPONENT_COUNT>
1

> <PUBCHEM_CACTVS_TAUTO_COUNT>
-1

> <PUBCHEM_COORDINATE_TYPE>
1
5
255

> <PUBCHEM_BONDANNOTATIONS>
1  17  8
1  23  8
17  18  8
8  2  6
22  25  8
22  26  8
25  27  8
26  29  8
27  28  8
27  30  8
28  29  8
30  31  8
5  18  8
5  23  8
7  28  8
7  31  8

$$$$
