164623818
  -OEChem-09292322432D

 55 58  0     1  0  0  0  0  0999 V2000
    5.4176    4.7871    0.0000 O   0  0  0  0  0  0  0  0  0  0  0  0
    8.0436    3.2524    0.0000 O   0  0  0  0  0  0  0  0  0  0  0  0
    2.0000   -1.3220    0.0000 O   0  0  0  0  0  0  0  0  0  0  0  0
    2.0578   -6.3217    0.0000 O   0  5  0  0  0  0  0  0  0  0  0  0
    3.7898   -6.3017    0.0000 O   0  0  0  0  0  0  0  0  0  0  0  0
    5.4176    2.7178    0.0000 N   0  0  3  0  0  0  0  0  0  0  0  0
    3.7319   -1.3020    0.0000 N   0  0  0  0  0  0  0  0  0  0  0  0
    2.9180   -5.8117    0.0000 N   0  3  0  0  0  0  0  0  0  0  0  0
    6.3116    3.2524    0.0000 C   0  0  1  0  0  0  0  0  0  0  0  0
    6.3116    4.2524    0.0000 C   0  0  1  0  0  0  0  0  0  0  0  0
    4.5116    3.2316    0.0000 C   0  0  0  0  0  0  0  0  0  0  0  0
    7.1776    2.7524    0.0000 C   0  0  0  0  0  0  0  0  0  0  0  0
    5.4292    1.7178    0.0000 C   0  0  0  0  0  0  0  0  0  0  0  0
    7.1776    4.7524    0.0000 C   0  0  0  0  0  0  0  0  0  0  0  0
    4.5116    4.2732    0.0000 C   0  0  0  0  0  0  0  0  0  0  0  0
    4.5690    1.2078    0.0000 C   0  0  0  0  0  0  0  0  0  0  0  0
    8.0436    4.2524    0.0000 C   0  0  0  0  0  0  0  0  0  0  0  0
    4.5806    0.2079    0.0000 C   0  0  0  0  0  0  0  0  0  0  0  0
    7.1615    5.7939    0.0000 C   0  0  0  0  0  0  0  0  0  0  0  0
    8.9536    4.7593    0.0000 C   0  0  0  0  0  0  0  0  0  0  0  0
    3.7204   -0.3021    0.0000 C   0  0  0  0  0  0  0  0  0  0  0  0
    8.0596    6.3217    0.0000 C   0  0  0  0  0  0  0  0  0  0  0  0
    8.9616    5.8009    0.0000 C   0  0  0  0  0  0  0  0  0  0  0  0
    2.8718   -1.8120    0.0000 C   0  0  0  0  0  0  0  0  0  0  0  0
    2.8833   -2.8119    0.0000 C   0  0  0  0  0  0  0  0  0  0  0  0
    3.7551   -3.3019    0.0000 C   0  0  0  0  0  0  0  0  0  0  0  0
    2.0231   -3.3219    0.0000 C   0  0  0  0  0  0  0  0  0  0  0  0
    3.7666   -4.3018    0.0000 C   0  0  0  0  0  0  0  0  0  0  0  0
    2.0347   -4.3218    0.0000 C   0  0  0  0  0  0  0  0  0  0  0  0
    2.9064   -4.8118    0.0000 C   0  0  0  0  0  0  0  0  0  0  0  0
    6.3181    2.4024    0.0000 H   0  0  0  0  0  0  0  0  0  0  0  0
    6.3181    5.1024    0.0000 H   0  0  0  0  0  0  0  0  0  0  0  0
    3.9007    3.3377    0.0000 H   0  0  0  0  0  0  0  0  0  0  0  0
    4.3025    2.6479    0.0000 H   0  0  0  0  0  0  0  0  0  0  0  0
    6.7791    2.2775    0.0000 H   0  0  0  0  0  0  0  0  0  0  0  0
    7.5761    2.2775    0.0000 H   0  0  0  0  0  0  0  0  0  0  0  0
    5.6480    1.1377    0.0000 H   0  0  0  0  0  0  0  0  0  0  0  0
    6.0385    1.8326    0.0000 H   0  0  0  0  0  0  0  0  0  0  0  0
    4.3025    4.8569    0.0000 H   0  0  0  0  0  0  0  0  0  0  0  0
    3.9007    4.1672    0.0000 H   0  0  0  0  0  0  0  0  0  0  0  0
    4.3502    1.7880    0.0000 H   0  0  0  0  0  0  0  0  0  0  0  0
    3.9597    1.0931    0.0000 H   0  0  0  0  0  0  0  0  0  0  0  0
    4.7993   -0.3722    0.0000 H   0  0  0  0  0  0  0  0  0  0  0  0
    5.1898    0.3226    0.0000 H   0  0  0  0  0  0  0  0  0  0  0  0
    6.6210    6.0977    0.0000 H   0  0  0  0  0  0  0  0  0  0  0  0
    9.4869    4.4431    0.0000 H   0  0  0  0  0  0  0  0  0  0  0  0
    3.5016    0.2781    0.0000 H   0  0  0  0  0  0  0  0  0  0  0  0
    3.1111   -0.4168    0.0000 H   0  0  0  0  0  0  0  0  0  0  0  0
    8.0572    6.9417    0.0000 H   0  0  0  0  0  0  0  0  0  0  0  0
    9.4998    6.1088    0.0000 H   0  0  0  0  0  0  0  0  0  0  0  0
    4.2724   -1.6058    0.0000 H   0  0  0  0  0  0  0  0  0  0  0  0
    4.2884   -2.9857    0.0000 H   0  0  0  0  0  0  0  0  0  0  0  0
    1.4826   -3.0181    0.0000 H   0  0  0  0  0  0  0  0  0  0  0  0
    4.3071   -4.6056    0.0000 H   0  0  0  0  0  0  0  0  0  0  0  0
    1.5014   -4.6380    0.0000 H   0  0  0  0  0  0  0  0  0  0  0  0
  1 10  1  0  0  0  0
  1 15  1  0  0  0  0
  2 12  1  0  0  0  0
  2 17  1  0  0  0  0
  3 24  2  0  0  0  0
  4  8  1  0  0  0  0
  5  8  2  0  0  0  0
  6  9  1  0  0  0  0
  6 11  1  0  0  0  0
  6 13  1  0  0  0  0
  7 21  1  0  0  0  0
  7 24  1  0  0  0  0
  7 51  1  0  0  0  0
  8 30  1  0  0  0  0
  9 10  1  0  0  0  0
  9 12  1  0  0  0  0
  9 31  1  6  0  0  0
 10 14  1  0  0  0  0
 10 32  1  1  0  0  0
 11 15  1  0  0  0  0
 11 33  1  0  0  0  0
 11 34  1  0  0  0  0
 12 35  1  0  0  0  0
 12 36  1  0  0  0  0
 13 16  1  0  0  0  0
 13 37  1  0  0  0  0
 13 38  1  0  0  0  0
 14 17  1  0  0  0  0
 14 19  2  0  0  0  0
 15 39  1  0  0  0  0
 15 40  1  0  0  0  0
 16 18  1  0  0  0  0
 16 41  1  0  0  0  0
 16 42  1  0  0  0  0
 17 20  2  0  0  0  0
 18 21  1  0  0  0  0
 18 43  1  0  0  0  0
 18 44  1  0  0  0  0
 19 22  1  0  0  0  0
 19 45  1  0  0  0  0
 20 23  1  0  0  0  0
 20 46  1  0  0  0  0
 21 47  1  0  0  0  0
 21 48  1  0  0  0  0
 22 23  2  0  0  0  0
 22 49  1  0  0  0  0
 23 50  1  0  0  0  0
 24 25  1  0  0  0  0
 25 26  2  0  0  0  0
 25 27  1  0  0  0  0
 26 28  1  0  0  0  0
 26 52  1  0  0  0  0
 27 29  2  0  0  0  0
 27 53  1  0  0  0  0
 28 30  2  0  0  0  0
 28 54  1  0  0  0  0
 29 30  1  0  0  0  0
 29 55  1  0  0  0  0
M  CHG  2   4  -1   8   1
M  END
> <PUBCHEM_COMPOUND_CID>
164623818

> <PUBCHEM_COMPOUND_CANONICALIZED>
1

> <PUBCHEM_CACTVS_COMPLEXITY>
590

> <PUBCHEM_CACTVS_HBOND_ACCEPTOR>
6

> <PUBCHEM_CACTVS_HBOND_DONOR>
1

> <PUBCHEM_CACTVS_ROTATABLE_BOND>
6

> <PUBCHEM_CACTVS_SUBSKEYS>
AAADceB7OAAAAAAAAAAAAAAAAAAAAAAAAAA8aIEAAAAAAACxQAAAHgAUAAAADDzhmAYwxoPQRACJAiVSUwCCCAAkIgAoiIEObMoOJzKEtZuHOSjl1hGY6Ye4yaCeCAAAAAAIAAAQAAAAABAAAAAAAAAAAA==

> <PUBCHEM_IUPAC_OPENEYE_NAME>
N-[4-[(4aR,10bR)-3,4a,5,10b-tetrahydro-2H-chromeno[4,3-b][1,4]oxazin-4-yl]butyl]-4-nitro-benzamide

> <PUBCHEM_IUPAC_CAS_NAME>
N-[4-[(4aR,10bR)-3,4a,5,10b-tetrahydro-2H-[1]benzopyrano[4,3-b][1,4]oxazin-4-yl]butyl]-4-nitrobenzamide

> <PUBCHEM_IUPAC_NAME_MARKUP>
<I>N</I>-[4-[(4<I>a</I><I>R</I>,10<I>b</I><I>R</I>)-3,4<I>a</I>,5,10<I>b</I>-tetrahydro-2<I>H</I>-chromeno[4,3-b][1,4]oxazin-4-yl]butyl]-4-nitrobenzamide

> <PUBCHEM_IUPAC_NAME>
N-[4-[(4aR,10bR)-3,4a,5,10b-tetrahydro-2H-chromeno[4,3-b][1,4]oxazin-4-yl]butyl]-4-nitrobenzamide

> <PUBCHEM_IUPAC_SYSTEMATIC_NAME>
N-[4-[(4aR,10bR)-3,4a,5,10b-tetrahydro-2H-chromeno[4,3-b][1,4]oxazin-4-yl]butyl]-4-nitro-benzamide

> <PUBCHEM_IUPAC_TRADITIONAL_NAME>
N-[4-[(4aR,10bR)-3,4a,5,10b-tetrahydro-2H-chromeno[4,3-b][1,4]oxazin-4-yl]butyl]-4-nitro-benzamide

> <PUBCHEM_IUPAC_INCHI>
InChI=1S/C22H25N3O5/c26-22(16-7-9-17(10-8-16)25(27)28)23-11-3-4-12-24-13-14-29-21-18-5-1-2-6-20(18)30-15-19(21)24/h1-2,5-10,19,21H,3-4,11-15H2,(H,23,26)/t19-,21-/m1/s1

> <PUBCHEM_IUPAC_INCHIKEY>
CQNWLYUGTVHPNE-TZIWHRDSSA-N

> <PUBCHEM_XLOGP3>
2.9

> <PUBCHEM_EXACT_MASS>
411.17942091

> <PUBCHEM_MOLECULAR_FORMULA>
C22H25N3O5

> <PUBCHEM_MOLECULAR_WEIGHT>
411.5

> <PUBCHEM_OPENEYE_CAN_SMILES>
C1COC2C(N1CCCCNC(=O)C3=CC=C(C=C3)[N+](=O)[O-])COC4=CC=CC=C24

> <PUBCHEM_OPENEYE_ISO_SMILES>
C1CO[C@H]2[C@H](N1CCCCNC(=O)C3=CC=C(C=C3)[N+](=O)[O-])COC4=CC=CC=C24

> <PUBCHEM_CACTVS_TPSA>
96.6

> <PUBCHEM_MONOISOTOPIC_WEIGHT>
411.17942091

> <PUBCHEM_TOTAL_CHARGE>
0

> <PUBCHEM_HEAVY_ATOM_COUNT>
30

> <PUBCHEM_ATOM_DEF_STEREO_COUNT>
2

> <PUBCHEM_ATOM_UDEF_STEREO_COUNT>
0

> <PUBCHEM_BOND_DEF_STEREO_COUNT>
0

> <PUBCHEM_BOND_UDEF_STEREO_COUNT>
0

> <PUBCHEM_ISOTOPIC_ATOM_COUNT>
0

> <PUBCHEM_COMPONENT_COUNT>
1

> <PUBCHEM_CACTVS_TAUTO_COUNT>
-1

> <PUBCHEM_COORDINATE_TYPE>
1
5
255

> <PUBCHEM_BONDANNOTATIONS>
10  32  5
14  17  8
14  19  8
17  20  8
19  22  8
20  23  8
22  23  8
25  26  8
25  27  8
26  28  8
27  29  8
28  30  8
29  30  8
9  31  6

$$$$
