46880567
  -OEChem-09292322482D

 57 61  0     1  0  0  0  0  0999 V2000
    2.8660   -2.7500    0.0000 F   0  0  0  0  0  0  0  0  0  0  0  0
   10.6603   -1.2500    0.0000 O   0  0  0  0  0  0  0  0  0  0  0  0
    7.1962    2.7500    0.0000 O   0  0  0  0  0  0  0  0  0  0  0  0
    9.7942    0.2500    0.0000 N   0  0  0  0  0  0  0  0  0  0  0  0
    8.0622    1.2500    0.0000 N   0  0  0  0  0  0  0  0  0  0  0  0
   14.2045   -0.0547    0.0000 N   0  0  0  0  0  0  0  0  0  0  0  0
    9.7942    1.2500    0.0000 C   0  0  2  0  0  0  0  0  0  0  0  0
    8.9282    1.7500    0.0000 C   0  0  0  0  0  0  0  0  0  0  0  0
    8.9282   -0.2500    0.0000 C   0  0  0  0  0  0  0  0  0  0  0  0
    8.0622    0.2500    0.0000 C   0  0  0  0  0  0  0  0  0  0  0  0
   10.6603    1.7500    0.0000 C   0  0  0  0  0  0  0  0  0  0  0  0
   10.6603   -0.2500    0.0000 C   0  0  0  0  0  0  0  0  0  0  0  0
    7.1962    1.7500    0.0000 C   0  0  0  0  0  0  0  0  0  0  0  0
   11.5263    0.2500    0.0000 C   0  0  0  0  0  0  0  0  0  0  0  0
    6.3301    1.2500    0.0000 C   0  0  0  0  0  0  0  0  0  0  0  0
   12.3923   -0.2500    0.0000 C   0  0  0  0  0  0  0  0  0  0  0  0
   11.5263    1.2500    0.0000 C   0  0  0  0  0  0  0  0  0  0  0  0
   13.2583    0.2500    0.0000 C   0  0  0  0  0  0  0  0  0  0  0  0
   13.2583    1.2500    0.0000 C   0  0  0  0  0  0  0  0  0  0  0  0
    5.4641    1.7500    0.0000 C   0  0  0  0  0  0  0  0  0  0  0  0
    6.3301    0.2500    0.0000 C   0  0  0  0  0  0  0  0  0  0  0  0
   12.3923    1.7500    0.0000 C   0  0  0  0  0  0  0  0  0  0  0  0
    4.5981    1.2500    0.0000 C   0  0  0  0  0  0  0  0  0  0  0  0
    5.4641   -0.2500    0.0000 C   0  0  0  0  0  0  0  0  0  0  0  0
    4.5981    0.2500    0.0000 C   0  0  0  0  0  0  0  0  0  0  0  0
   14.2045    1.5547    0.0000 C   0  0  0  0  0  0  0  0  0  0  0  0
   14.7882    0.7500    0.0000 C   0  0  0  0  0  0  0  0  0  0  0  0
    3.7320   -0.2500    0.0000 C   0  0  0  0  0  0  0  0  0  0  0  0
    3.7320   -1.2500    0.0000 C   0  0  0  0  0  0  0  0  0  0  0  0
    2.8660    0.2500    0.0000 C   0  0  0  0  0  0  0  0  0  0  0  0
    2.8660   -1.7500    0.0000 C   0  0  0  0  0  0  0  0  0  0  0  0
    2.0000   -0.2500    0.0000 C   0  0  0  0  0  0  0  0  0  0  0  0
    2.0000   -1.2500    0.0000 C   0  0  0  0  0  0  0  0  0  0  0  0
   10.3312    0.9400    0.0000 H   0  0  0  0  0  0  0  0  0  0  0  0
    9.3267    2.2250    0.0000 H   0  0  0  0  0  0  0  0  0  0  0  0
    8.5297    2.2250    0.0000 H   0  0  0  0  0  0  0  0  0  0  0  0
    8.5297   -0.7249    0.0000 H   0  0  0  0  0  0  0  0  0  0  0  0
    9.3267   -0.7249    0.0000 H   0  0  0  0  0  0  0  0  0  0  0  0
    7.4516    0.3577    0.0000 H   0  0  0  0  0  0  0  0  0  0  0  0
    7.8501   -0.3326    0.0000 H   0  0  0  0  0  0  0  0  0  0  0  0
   10.9703    1.2131    0.0000 H   0  0  0  0  0  0  0  0  0  0  0  0
   11.1972    2.0600    0.0000 H   0  0  0  0  0  0  0  0  0  0  0  0
   10.3503    2.2869    0.0000 H   0  0  0  0  0  0  0  0  0  0  0  0
   12.3923   -0.8700    0.0000 H   0  0  0  0  0  0  0  0  0  0  0  0
   10.9893    1.5600    0.0000 H   0  0  0  0  0  0  0  0  0  0  0  0
    5.4641    2.3700    0.0000 H   0  0  0  0  0  0  0  0  0  0  0  0
    6.8671   -0.0600    0.0000 H   0  0  0  0  0  0  0  0  0  0  0  0
   12.3923    2.3700    0.0000 H   0  0  0  0  0  0  0  0  0  0  0  0
    4.0611    1.5600    0.0000 H   0  0  0  0  0  0  0  0  0  0  0  0
    5.4641   -0.8700    0.0000 H   0  0  0  0  0  0  0  0  0  0  0  0
   14.3972   -0.6441    0.0000 H   0  0  0  0  0  0  0  0  0  0  0  0
   14.3972    2.1440    0.0000 H   0  0  0  0  0  0  0  0  0  0  0  0
   15.4082    0.7500    0.0000 H   0  0  0  0  0  0  0  0  0  0  0  0
    4.2690   -1.5600    0.0000 H   0  0  0  0  0  0  0  0  0  0  0  0
    2.8660    0.8700    0.0000 H   0  0  0  0  0  0  0  0  0  0  0  0
    1.4631    0.0600    0.0000 H   0  0  0  0  0  0  0  0  0  0  0  0
    1.4631   -1.5600    0.0000 H   0  0  0  0  0  0  0  0  0  0  0  0
  1 31  1  0  0  0  0
  2 12  2  0  0  0  0
  3 13  2  0  0  0  0
  4  7  1  0  0  0  0
  4  9  1  0  0  0  0
  4 12  1  0  0  0  0
  5  8  1  0  0  0  0
  5 10  1  0  0  0  0
  5 13  1  0  0  0  0
  6 18  1  0  0  0  0
  6 27  1  0  0  0  0
  6 51  1  0  0  0  0
  7  8  1  0  0  0  0
  7 11  1  6  0  0  0
  7 34  1  0  0  0  0
  8 35  1  0  0  0  0
  8 36  1  0  0  0  0
  9 10  1  0  0  0  0
  9 37  1  0  0  0  0
  9 38  1  0  0  0  0
 10 39  1  0  0  0  0
 10 40  1  0  0  0  0
 11 41  1  0  0  0  0
 11 42  1  0  0  0  0
 11 43  1  0  0  0  0
 12 14  1  0  0  0  0
 13 15  1  0  0  0  0
 14 16  2  0  0  0  0
 14 17  1  0  0  0  0
 15 20  2  0  0  0  0
 15 21  1  0  0  0  0
 16 18  1  0  0  0  0
 16 44  1  0  0  0  0
 17 22  2  0  0  0  0
 17 45  1  0  0  0  0
 18 19  2  0  0  0  0
 19 22  1  0  0  0  0
 19 26  1  0  0  0  0
 20 23  1  0  0  0  0
 20 46  1  0  0  0  0
 21 24  2  0  0  0  0
 21 47  1  0  0  0  0
 22 48  1  0  0  0  0
 23 25  2  0  0  0  0
 23 49  1  0  0  0  0
 24 25  1  0  0  0  0
 24 50  1  0  0  0  0
 25 28  1  0  0  0  0
 26 27  2  0  0  0  0
 26 52  1  0  0  0  0
 27 53  1  0  0  0  0
 28 29  2  0  0  0  0
 28 30  1  0  0  0  0
 29 31  1  0  0  0  0
 29 54  1  0  0  0  0
 30 32  2  0  0  0  0
 30 55  1  0  0  0  0
 31 33  2  0  0  0  0
 32 33  1  0  0  0  0
 32 56  1  0  0  0  0
 33 57  1  0  0  0  0
M  END
> <PUBCHEM_COMPOUND_CID>
46880567

> <PUBCHEM_COMPOUND_CANONICALIZED>
1

> <PUBCHEM_CACTVS_COMPLEXITY>
710

> <PUBCHEM_CACTVS_HBOND_ACCEPTOR>
3

> <PUBCHEM_CACTVS_HBOND_DONOR>
1

> <PUBCHEM_CACTVS_ROTATABLE_BOND>
3

> <PUBCHEM_CACTVS_SUBSKEYS>
AAADceB7MQAAAAAAAAAAAAAAAAAAAWAAAAA8YMEAAAAAAFgB9AAAHwAQAAAADCjBngw+wPPJkACoAzV3VACCgCA1AiAI2aE4ZNgIYPLAlZGUIQhglgDIyYcciMCOwAAAQAACAACAAACAAAQAAAAAAAAAAA==

> <PUBCHEM_IUPAC_OPENEYE_NAME>
[4-(3-fluorophenyl)phenyl]-[(3S)-4-(1H-indole-6-carbonyl)-3-methyl-piperazin-1-yl]methanone

> <PUBCHEM_IUPAC_CAS_NAME>
[4-(3-fluorophenyl)phenyl]-[(3S)-4-[1H-indol-6-yl(oxo)methyl]-3-methyl-1-piperazinyl]methanone

> <PUBCHEM_IUPAC_NAME_MARKUP>
[4-(3-fluorophenyl)phenyl]-[(3<I>S</I>)-4-(1<I>H</I>-indole-6-carbonyl)-3-methylpiperazin-1-yl]methanone

> <PUBCHEM_IUPAC_NAME>
[4-(3-fluorophenyl)phenyl]-[(3S)-4-(1H-indole-6-carbonyl)-3-methylpiperazin-1-yl]methanone

> <PUBCHEM_IUPAC_SYSTEMATIC_NAME>
[4-(3-fluorophenyl)phenyl]-[(3S)-4-(1H-indol-6-ylcarbonyl)-3-methyl-piperazin-1-yl]methanone

> <PUBCHEM_IUPAC_TRADITIONAL_NAME>
[4-(3-fluorophenyl)phenyl]-[(3S)-4-(1H-indole-6-carbonyl)-3-methyl-piperazino]methanone

> <PUBCHEM_IUPAC_INCHI>
InChI=1S/C27H24FN3O2/c1-18-17-30(13-14-31(18)27(33)23-10-7-20-11-12-29-25(20)16-23)26(32)21-8-5-19(6-9-21)22-3-2-4-24(28)15-22/h2-12,15-16,18,29H,13-14,17H2,1H3/t18-/m0/s1

> <PUBCHEM_IUPAC_INCHIKEY>
LGKIWGDJKNJYMG-SFHVURJKSA-N

> <PUBCHEM_XLOGP3_AA>
4.6

> <PUBCHEM_EXACT_MASS>
441.18525518

> <PUBCHEM_MOLECULAR_FORMULA>
C27H24FN3O2

> <PUBCHEM_MOLECULAR_WEIGHT>
441.5

> <PUBCHEM_OPENEYE_CAN_SMILES>
CC1CN(CCN1C(=O)C2=CC3=C(C=C2)C=CN3)C(=O)C4=CC=C(C=C4)C5=CC(=CC=C5)F

> <PUBCHEM_OPENEYE_ISO_SMILES>
C[C@H]1CN(CCN1C(=O)C2=CC3=C(C=C2)C=CN3)C(=O)C4=CC=C(C=C4)C5=CC(=CC=C5)F

> <PUBCHEM_CACTVS_TPSA>
56.4

> <PUBCHEM_MONOISOTOPIC_WEIGHT>
441.18525518

> <PUBCHEM_TOTAL_CHARGE>
0

> <PUBCHEM_HEAVY_ATOM_COUNT>
33

> <PUBCHEM_ATOM_DEF_STEREO_COUNT>
1

> <PUBCHEM_ATOM_UDEF_STEREO_COUNT>
0

> <PUBCHEM_BOND_DEF_STEREO_COUNT>
0

> <PUBCHEM_BOND_UDEF_STEREO_COUNT>
0

> <PUBCHEM_ISOTOPIC_ATOM_COUNT>
0

> <PUBCHEM_COMPONENT_COUNT>
1

> <PUBCHEM_CACTVS_TAUTO_COUNT>
-1

> <PUBCHEM_COORDINATE_TYPE>
1
5
255

> <PUBCHEM_BONDANNOTATIONS>
14  16  8
14  17  8
15  20  8
15  21  8
16  18  8
17  22  8
18  19  8
19  22  8
19  26  8
20  23  8
21  24  8
23  25  8
24  25  8
26  27  8
28  29  8
28  30  8
29  31  8
30  32  8
31  33  8
32  33  8
6  18  8
6  27  8
7  11  6

$$$$
