163486284
  -OEChem-09292322452D

 54 56  0     1  0  0  0  0  0999 V2000
    8.8564    2.0646    0.0000 O   0  0  0  0  0  0  0  0  0  0  0  0
    9.4778    3.9656    0.0000 O   0  0  0  0  0  0  0  0  0  0  0  0
    5.6103    0.4954    0.0000 N   0  0  0  0  0  0  0  0  0  0  0  0
    4.6783   -3.9656    0.0000 N   0  0  0  0  0  0  0  0  0  0  0  0
    7.2101    2.6027    0.0000 N   0  0  0  0  0  0  0  0  0  0  0  0
    4.9889   -1.4056    0.0000 C   0  0  0  0  0  0  0  0  0  0  0  0
    4.3211   -0.6613    0.0000 C   0  0  0  0  0  0  0  0  0  0  0  0
    5.9674   -1.1994    0.0000 C   0  0  0  0  0  0  0  0  0  0  0  0
    4.6318    0.2892    0.0000 C   0  0  0  0  0  0  0  0  0  0  0  0
    6.2781   -0.2489    0.0000 C   0  0  0  0  0  0  0  0  0  0  0  0
    4.6783   -2.3562    0.0000 C   0  0  0  0  0  0  0  0  0  0  0  0
    5.9209    1.4459    0.0000 C   0  0  0  0  0  0  0  0  0  0  0  0
    3.7320   -2.6609    0.0000 C   0  0  0  0  0  0  0  0  0  0  0  0
    6.8994    1.6521    0.0000 C   0  0  0  0  0  0  0  0  0  0  0  0
    5.2619   -3.1609    0.0000 C   0  0  0  0  0  0  0  0  0  0  0  0
    3.7320   -3.6609    0.0000 C   0  0  0  0  0  0  0  0  0  0  0  0
    2.8660   -2.1609    0.0000 C   0  0  0  0  0  0  0  0  0  0  0  0
    6.5422    3.3470    0.0000 C   0  0  0  0  0  0  0  0  0  0  0  0
    2.8660   -4.1609    0.0000 C   0  0  0  0  0  0  0  0  0  0  0  0
    8.1886    2.8089    0.0000 C   0  0  0  0  0  0  0  0  0  0  0  0
    2.0000   -2.6609    0.0000 C   0  0  0  0  0  0  0  0  0  0  0  0
    2.0000   -3.6609    0.0000 C   0  0  0  0  0  0  0  0  0  0  0  0
    8.4993    3.7594    0.0000 C   0  0  1  0  0  0  0  0  0  0  0  0
    6.8529    4.2975    0.0000 C   0  0  0  0  0  0  0  0  0  0  0  0
    7.8314    4.5037    0.0000 C   0  0  0  0  0  0  0  0  0  0  0  0
    5.4030   -1.8671    0.0000 H   0  0  0  0  0  0  0  0  0  0  0  0
    3.7742   -0.3693    0.0000 H   0  0  0  0  0  0  0  0  0  0  0  0
    3.9385   -1.1492    0.0000 H   0  0  0  0  0  0  0  0  0  0  0  0
    5.9880   -1.8191    0.0000 H   0  0  0  0  0  0  0  0  0  0  0  0
    6.5812   -1.2868    0.0000 H   0  0  0  0  0  0  0  0  0  0  0  0
    4.6112    0.9088    0.0000 H   0  0  0  0  0  0  0  0  0  0  0  0
    4.0179    0.3765    0.0000 H   0  0  0  0  0  0  0  0  0  0  0  0
    6.8250   -0.5409    0.0000 H   0  0  0  0  0  0  0  0  0  0  0  0
    6.6607    0.2390    0.0000 H   0  0  0  0  0  0  0  0  0  0  0  0
    5.9004    2.0656    0.0000 H   0  0  0  0  0  0  0  0  0  0  0  0
    5.3071    1.5333    0.0000 H   0  0  0  0  0  0  0  0  0  0  0  0
    6.9200    1.0325    0.0000 H   0  0  0  0  0  0  0  0  0  0  0  0
    7.5132    1.5648    0.0000 H   0  0  0  0  0  0  0  0  0  0  0  0
    5.8819   -3.1609    0.0000 H   0  0  0  0  0  0  0  0  0  0  0  0
    4.8709   -4.5549    0.0000 H   0  0  0  0  0  0  0  0  0  0  0  0
    2.8660   -1.5409    0.0000 H   0  0  0  0  0  0  0  0  0  0  0  0
    5.9953    3.6390    0.0000 H   0  0  0  0  0  0  0  0  0  0  0  0
    6.1597    2.8591    0.0000 H   0  0  0  0  0  0  0  0  0  0  0  0
    2.8660   -4.7809    0.0000 H   0  0  0  0  0  0  0  0  0  0  0  0
    1.4631   -2.3509    0.0000 H   0  0  0  0  0  0  0  0  0  0  0  0
    1.4631   -3.9709    0.0000 H   0  0  0  0  0  0  0  0  0  0  0  0
    8.9133    3.2979    0.0000 H   0  0  0  0  0  0  0  0  0  0  0  0
    7.4422    4.1049    0.0000 H   0  0  0  0  0  0  0  0  0  0  0  0
    7.0455    4.8868    0.0000 H   0  0  0  0  0  0  0  0  0  0  0  0
    6.2636    4.4901    0.0000 H   0  0  0  0  0  0  0  0  0  0  0  0
    8.2929    4.9178    0.0000 H   0  0  0  0  0  0  0  0  0  0  0  0
    7.4174    4.9652    0.0000 H   0  0  0  0  0  0  0  0  0  0  0  0
    7.3700    4.0896    0.0000 H   0  0  0  0  0  0  0  0  0  0  0  0
    9.6704    4.5549    0.0000 H   0  0  0  0  0  0  0  0  0  0  0  0
  1 20  2  0  0  0  0
 23  2  1  1  0  0  0
  2 54  1  0  0  0  0
  3  9  1  0  0  0  0
  3 10  1  0  0  0  0
  3 12  1  0  0  0  0
  4 15  1  0  0  0  0
  4 16  1  0  0  0  0
  4 40  1  0  0  0  0
  5 14  1  0  0  0  0
  5 18  1  0  0  0  0
  5 20  1  0  0  0  0
  6  7  1  0  0  0  0
  6  8  1  0  0  0  0
  6 11  1  0  0  0  0
  6 26  1  0  0  0  0
  7  9  1  0  0  0  0
  7 27  1  0  0  0  0
  7 28  1  0  0  0  0
  8 10  1  0  0  0  0
  8 29  1  0  0  0  0
  8 30  1  0  0  0  0
  9 31  1  0  0  0  0
  9 32  1  0  0  0  0
 10 33  1  0  0  0  0
 10 34  1  0  0  0  0
 11 13  1  0  0  0  0
 11 15  2  0  0  0  0
 12 14  1  0  0  0  0
 12 35  1  0  0  0  0
 12 36  1  0  0  0  0
 13 16  1  0  0  0  0
 13 17  2  0  0  0  0
 14 37  1  0  0  0  0
 14 38  1  0  0  0  0
 15 39  1  0  0  0  0
 16 19  2  0  0  0  0
 17 21  1  0  0  0  0
 17 41  1  0  0  0  0
 18 24  1  0  0  0  0
 18 42  1  0  0  0  0
 18 43  1  0  0  0  0
 19 22  1  0  0  0  0
 19 44  1  0  0  0  0
 20 23  1  0  0  0  0
 21 22  2  0  0  0  0
 21 45  1  0  0  0  0
 22 46  1  0  0  0  0
 23 25  1  0  0  0  0
 23 47  1  0  0  0  0
 24 48  1  0  0  0  0
 24 49  1  0  0  0  0
 24 50  1  0  0  0  0
 25 51  1  0  0  0  0
 25 52  1  0  0  0  0
 25 53  1  0  0  0  0
M  END
> <PUBCHEM_COMPOUND_CID>
163486284

> <PUBCHEM_COMPOUND_CANONICALIZED>
1

> <PUBCHEM_CACTVS_COMPLEXITY>
437

> <PUBCHEM_CACTVS_HBOND_ACCEPTOR>
3

> <PUBCHEM_CACTVS_HBOND_DONOR>
2

> <PUBCHEM_CACTVS_ROTATABLE_BOND>
6

> <PUBCHEM_CACTVS_SUBSKEYS>
AAADceB7MAAAAAAAAAAAAAAAAAAAAWAAAAA8QAAAAAAAAFgB8AAAHgAQCAAADRzhngY+wPPJkgCoAzV3VAKCgCAxAiAI2aF4ZJgKcOLAkZGUIAhglgDYyAcQgMAOgAAAAAACAAAAAAAAAAQAAAAAAAAAAA==

> <PUBCHEM_IUPAC_OPENEYE_NAME>
(2R)-N-ethyl-2-hydroxy-N-[2-[4-(1H-indol-3-yl)-1-piperidyl]ethyl]propanamide

> <PUBCHEM_IUPAC_CAS_NAME>
(2R)-N-ethyl-2-hydroxy-N-[2-[4-(1H-indol-3-yl)-1-piperidinyl]ethyl]propanamide

> <PUBCHEM_IUPAC_NAME_MARKUP>
(2<I>R</I>)-<I>N</I>-ethyl-2-hydroxy-<I>N</I>-[2-[4-(1<I>H</I>-indol-3-yl)piperidin-1-yl]ethyl]propanamide

> <PUBCHEM_IUPAC_NAME>
(2R)-N-ethyl-2-hydroxy-N-[2-[4-(1H-indol-3-yl)piperidin-1-yl]ethyl]propanamide

> <PUBCHEM_IUPAC_SYSTEMATIC_NAME>
(2R)-N-ethyl-N-[2-[4-(1H-indol-3-yl)piperidin-1-yl]ethyl]-2-oxidanyl-propanamide

> <PUBCHEM_IUPAC_TRADITIONAL_NAME>
(2R)-N-ethyl-2-hydroxy-N-[2-[4-(1H-indol-3-yl)piperidino]ethyl]propionamide

> <PUBCHEM_IUPAC_INCHI>
InChI=1S/C20H29N3O2/c1-3-23(20(25)15(2)24)13-12-22-10-8-16(9-11-22)18-14-21-19-7-5-4-6-17(18)19/h4-7,14-16,21,24H,3,8-13H2,1-2H3/t15-/m1/s1

> <PUBCHEM_IUPAC_INCHIKEY>
CIUZQYPUMSZQLW-OAHLLOKOSA-N

> <PUBCHEM_XLOGP3_AA>
2.2

> <PUBCHEM_EXACT_MASS>
343.22597718

> <PUBCHEM_MOLECULAR_FORMULA>
C20H29N3O2

> <PUBCHEM_MOLECULAR_WEIGHT>
343.5

> <PUBCHEM_OPENEYE_CAN_SMILES>
CCN(CCN1CCC(CC1)C2=CNC3=CC=CC=C32)C(=O)C(C)O

> <PUBCHEM_OPENEYE_ISO_SMILES>
CCN(CCN1CCC(CC1)C2=CNC3=CC=CC=C32)C(=O)[C@@H](C)O

> <PUBCHEM_CACTVS_TPSA>
59.6

> <PUBCHEM_MONOISOTOPIC_WEIGHT>
343.22597718

> <PUBCHEM_TOTAL_CHARGE>
0

> <PUBCHEM_HEAVY_ATOM_COUNT>
25

> <PUBCHEM_ATOM_DEF_STEREO_COUNT>
1

> <PUBCHEM_ATOM_UDEF_STEREO_COUNT>
0

> <PUBCHEM_BOND_DEF_STEREO_COUNT>
0

> <PUBCHEM_BOND_UDEF_STEREO_COUNT>
0

> <PUBCHEM_ISOTOPIC_ATOM_COUNT>
0

> <PUBCHEM_COMPONENT_COUNT>
1

> <PUBCHEM_CACTVS_TAUTO_COUNT>
-1

> <PUBCHEM_COORDINATE_TYPE>
1
5
255

> <PUBCHEM_BONDANNOTATIONS>
11  13  8
11  15  8
13  16  8
13  17  8
16  19  8
17  21  8
19  22  8
23  2  5
21  22  8
4  15  8
4  16  8

$$$$
