107780
  -OEChem-09292322122D

 68 72  0     0  0  0  0  0  0999 V2000
    2.8660    1.8512    0.0000 O   0  0  0  0  0  0  0  0  0  0  0  0
    5.4641   -1.6488    0.0000 O   0  0  0  0  0  0  0  0  0  0  0  0
   13.4750   -5.8512    0.0000 O   0  0  0  0  0  0  0  0  0  0  0  0
    4.5981    2.8512    0.0000 N   0  0  0  0  0  0  0  0  0  0  0  0
    4.5981    4.8512    0.0000 N   0  0  0  0  0  0  0  0  0  0  0  0
    6.3301   -0.1488    0.0000 N   0  0  0  0  0  0  0  0  0  0  0  0
   13.3059   -4.2420    0.0000 N   0  0  0  0  0  0  0  0  0  0  0  0
   12.4968   -5.6433    0.0000 N   0  0  0  0  0  0  0  0  0  0  0  0
    5.4641    3.3512    0.0000 C   0  0  0  0  0  0  0  0  0  0  0  0
    3.7320    3.3512    0.0000 C   0  0  0  0  0  0  0  0  0  0  0  0
    5.4641    4.3512    0.0000 C   0  0  0  0  0  0  0  0  0  0  0  0
    3.7320    4.3512    0.0000 C   0  0  0  0  0  0  0  0  0  0  0  0
    4.5981    1.8512    0.0000 C   0  0  0  0  0  0  0  0  0  0  0  0
    4.5981    5.8512    0.0000 C   0  0  0  0  0  0  0  0  0  0  0  0
    3.7320    1.3512    0.0000 C   0  0  0  0  0  0  0  0  0  0  0  0
    5.4641    1.3512    0.0000 C   0  0  0  0  0  0  0  0  0  0  0  0
    5.4641    0.3512    0.0000 C   0  0  0  0  0  0  0  0  0  0  0  0
    3.7320    0.3512    0.0000 C   0  0  0  0  0  0  0  0  0  0  0  0
    4.5981   -0.1488    0.0000 C   0  0  0  0  0  0  0  0  0  0  0  0
    6.3301   -1.1488    0.0000 C   0  0  0  0  0  0  0  0  0  0  0  0
    2.0000    1.3512    0.0000 C   0  0  0  0  0  0  0  0  0  0  0  0
    7.1962   -1.6488    0.0000 C   0  0  0  0  0  0  0  0  0  0  0  0
    9.7942   -3.1488    0.0000 C   0  0  0  0  0  0  0  0  0  0  0  0
    8.9282   -2.6488    0.0000 C   0  0  0  0  0  0  0  0  0  0  0  0
   10.6603   -2.6488    0.0000 C   0  0  0  0  0  0  0  0  0  0  0  0
    7.1962   -2.6488    0.0000 C   0  0  0  0  0  0  0  0  0  0  0  0
    8.0622   -1.1488    0.0000 C   0  0  0  0  0  0  0  0  0  0  0  0
    8.0622   -3.1488    0.0000 C   0  0  0  0  0  0  0  0  0  0  0  0
    8.9282   -1.6488    0.0000 C   0  0  0  0  0  0  0  0  0  0  0  0
    9.7942   -4.1488    0.0000 C   0  0  0  0  0  0  0  0  0  0  0  0
   11.5263   -3.1488    0.0000 C   0  0  0  0  0  0  0  0  0  0  0  0
   11.5263   -4.1488    0.0000 C   0  0  0  0  0  0  0  0  0  0  0  0
   10.6603   -4.6488    0.0000 C   0  0  0  0  0  0  0  0  0  0  0  0
   10.6603   -1.6488    0.0000 C   0  0  0  0  0  0  0  0  0  0  0  0
   12.3923   -4.6488    0.0000 C   0  0  0  0  0  0  0  0  0  0  0  0
   13.9750   -4.9852    0.0000 C   0  0  0  0  0  0  0  0  0  0  0  0
   14.9695   -4.8807    0.0000 C   0  0  0  0  0  0  0  0  0  0  0  0
    5.6762    2.7686    0.0000 H   0  0  0  0  0  0  0  0  0  0  0  0
    6.0747    3.4589    0.0000 H   0  0  0  0  0  0  0  0  0  0  0  0
    3.1215    3.4589    0.0000 H   0  0  0  0  0  0  0  0  0  0  0  0
    3.5200    2.7686    0.0000 H   0  0  0  0  0  0  0  0  0  0  0  0
    6.0747    4.2436    0.0000 H   0  0  0  0  0  0  0  0  0  0  0  0
    5.6762    4.9338    0.0000 H   0  0  0  0  0  0  0  0  0  0  0  0
    3.5200    4.9338    0.0000 H   0  0  0  0  0  0  0  0  0  0  0  0
    3.1215    4.2436    0.0000 H   0  0  0  0  0  0  0  0  0  0  0  0
    5.2181    5.8512    0.0000 H   0  0  0  0  0  0  0  0  0  0  0  0
    4.5981    6.4712    0.0000 H   0  0  0  0  0  0  0  0  0  0  0  0
    3.9781    5.8512    0.0000 H   0  0  0  0  0  0  0  0  0  0  0  0
    6.0010    1.6612    0.0000 H   0  0  0  0  0  0  0  0  0  0  0  0
    3.1951    0.0412    0.0000 H   0  0  0  0  0  0  0  0  0  0  0  0
    4.5981   -0.7688    0.0000 H   0  0  0  0  0  0  0  0  0  0  0  0
    6.8671    0.1612    0.0000 H   0  0  0  0  0  0  0  0  0  0  0  0
    1.6900    1.8882    0.0000 H   0  0  0  0  0  0  0  0  0  0  0  0
    1.4631    1.0412    0.0000 H   0  0  0  0  0  0  0  0  0  0  0  0
    2.3100    0.8143    0.0000 H   0  0  0  0  0  0  0  0  0  0  0  0
    6.6592   -2.9588    0.0000 H   0  0  0  0  0  0  0  0  0  0  0  0
    8.0622   -0.5288    0.0000 H   0  0  0  0  0  0  0  0  0  0  0  0
    8.0622   -3.7688    0.0000 H   0  0  0  0  0  0  0  0  0  0  0  0
    9.4651   -1.3388    0.0000 H   0  0  0  0  0  0  0  0  0  0  0  0
    9.2573   -4.4588    0.0000 H   0  0  0  0  0  0  0  0  0  0  0  0
   12.0632   -2.8388    0.0000 H   0  0  0  0  0  0  0  0  0  0  0  0
   10.6603   -5.2688    0.0000 H   0  0  0  0  0  0  0  0  0  0  0  0
   11.2803   -1.6488    0.0000 H   0  0  0  0  0  0  0  0  0  0  0  0
   10.6603   -1.0288    0.0000 H   0  0  0  0  0  0  0  0  0  0  0  0
   10.0403   -1.6488    0.0000 H   0  0  0  0  0  0  0  0  0  0  0  0
   15.0343   -5.4973    0.0000 H   0  0  0  0  0  0  0  0  0  0  0  0
   15.5861   -4.8159    0.0000 H   0  0  0  0  0  0  0  0  0  0  0  0
   14.9047   -4.2641    0.0000 H   0  0  0  0  0  0  0  0  0  0  0  0
  1 15  1  0  0  0  0
  1 21  1  0  0  0  0
  2 20  2  0  0  0  0
  3  8  1  0  0  0  0
  3 36  1  0  0  0  0
  4  9  1  0  0  0  0
  4 10  1  0  0  0  0
  4 13  1  0  0  0  0
  5 11  1  0  0  0  0
  5 12  1  0  0  0  0
  5 14  1  0  0  0  0
  6 17  1  0  0  0  0
  6 20  1  0  0  0  0
  6 52  1  0  0  0  0
  7 35  1  0  0  0  0
  7 36  2  0  0  0  0
  8 35  2  0  0  0  0
  9 11  1  0  0  0  0
  9 38  1  0  0  0  0
  9 39  1  0  0  0  0
 10 12  1  0  0  0  0
 10 40  1  0  0  0  0
 10 41  1  0  0  0  0
 11 42  1  0  0  0  0
 11 43  1  0  0  0  0
 12 44  1  0  0  0  0
 12 45  1  0  0  0  0
 13 15  2  0  0  0  0
 13 16  1  0  0  0  0
 14 46  1  0  0  0  0
 14 47  1  0  0  0  0
 14 48  1  0  0  0  0
 15 18  1  0  0  0  0
 16 17  2  0  0  0  0
 16 49  1  0  0  0  0
 17 19  1  0  0  0  0
 18 19  2  0  0  0  0
 18 50  1  0  0  0  0
 19 51  1  0  0  0  0
 20 22  1  0  0  0  0
 21 53  1  0  0  0  0
 21 54  1  0  0  0  0
 21 55  1  0  0  0  0
 22 26  2  0  0  0  0
 22 27  1  0  0  0  0
 23 24  1  0  0  0  0
 23 25  2  0  0  0  0
 23 30  1  0  0  0  0
 24 28  2  0  0  0  0
 24 29  1  0  0  0  0
 25 31  1  0  0  0  0
 25 34  1  0  0  0  0
 26 28  1  0  0  0  0
 26 56  1  0  0  0  0
 27 29  2  0  0  0  0
 27 57  1  0  0  0  0
 28 58  1  0  0  0  0
 29 59  1  0  0  0  0
 30 33  2  0  0  0  0
 30 60  1  0  0  0  0
 31 32  2  0  0  0  0
 31 61  1  0  0  0  0
 32 33  1  0  0  0  0
 32 35  1  0  0  0  0
 33 62  1  0  0  0  0
 34 63  1  0  0  0  0
 34 64  1  0  0  0  0
 34 65  1  0  0  0  0
 36 37  1  0  0  0  0
 37 66  1  0  0  0  0
 37 67  1  0  0  0  0
 37 68  1  0  0  0  0
M  END
> <PUBCHEM_COMPOUND_CID>
107780

> <PUBCHEM_COMPOUND_CANONICALIZED>
1

> <PUBCHEM_CACTVS_COMPLEXITY>
739

> <PUBCHEM_CACTVS_HBOND_ACCEPTOR>
7

> <PUBCHEM_CACTVS_HBOND_DONOR>
1

> <PUBCHEM_CACTVS_ROTATABLE_BOND>
6

> <PUBCHEM_CACTVS_SUBSKEYS>
AAADceB7sAAAAAAAAAAAAAAAAAAAAWAAAAA8YMEAAAAAAAAB1AAAHgAUAAAADAzBmwYz1ofYFACpAidydgCCiAklIqApiCE/bNiObrLE/duVMShk1RPY6Ye4yMCOwEACAAQQEACAgAQACCAgAAAAAAAAAA==

> <PUBCHEM_IUPAC_OPENEYE_NAME>
N-[4-methoxy-3-(4-methylpiperazin-1-yl)phenyl]-4-[2-methyl-4-(5-methyl-1,2,4-oxadiazol-3-yl)phenyl]benzamide

> <PUBCHEM_IUPAC_CAS_NAME>
N-[4-methoxy-3-(4-methyl-1-piperazinyl)phenyl]-4-[2-methyl-4-(5-methyl-1,2,4-oxadiazol-3-yl)phenyl]benzamide

> <PUBCHEM_IUPAC_NAME_MARKUP>
<I>N</I>-[4-methoxy-3-(4-methylpiperazin-1-yl)phenyl]-4-[2-methyl-4-(5-methyl-1,2,4-oxadiazol-3-yl)phenyl]benzamide

> <PUBCHEM_IUPAC_NAME>
N-[4-methoxy-3-(4-methylpiperazin-1-yl)phenyl]-4-[2-methyl-4-(5-methyl-1,2,4-oxadiazol-3-yl)phenyl]benzamide

> <PUBCHEM_IUPAC_SYSTEMATIC_NAME>
N-[4-methoxy-3-(4-methylpiperazin-1-yl)phenyl]-4-[2-methyl-4-(5-methyl-1,2,4-oxadiazol-3-yl)phenyl]benzamide

> <PUBCHEM_IUPAC_TRADITIONAL_NAME>
N-[4-methoxy-3-(4-methylpiperazino)phenyl]-4-[2-methyl-4-(5-methyl-1,2,4-oxadiazol-3-yl)phenyl]benzamide

> <PUBCHEM_IUPAC_INCHI>
InChI=1S/C29H31N5O3/c1-19-17-23(28-30-20(2)37-32-28)9-11-25(19)21-5-7-22(8-6-21)29(35)31-24-10-12-27(36-4)26(18-24)34-15-13-33(3)14-16-34/h5-12,17-18H,13-16H2,1-4H3,(H,31,35)

> <PUBCHEM_IUPAC_INCHIKEY>
YDBCEBYHYKAFRX-UHFFFAOYSA-N

> <PUBCHEM_XLOGP3_AA>
4.9

> <PUBCHEM_EXACT_MASS>
497.24268987

> <PUBCHEM_MOLECULAR_FORMULA>
C29H31N5O3

> <PUBCHEM_MOLECULAR_WEIGHT>
497.6

> <PUBCHEM_OPENEYE_CAN_SMILES>
CC1=C(C=CC(=C1)C2=NOC(=N2)C)C3=CC=C(C=C3)C(=O)NC4=CC(=C(C=C4)OC)N5CCN(CC5)C

> <PUBCHEM_OPENEYE_ISO_SMILES>
CC1=C(C=CC(=C1)C2=NOC(=N2)C)C3=CC=C(C=C3)C(=O)NC4=CC(=C(C=C4)OC)N5CCN(CC5)C

> <PUBCHEM_CACTVS_TPSA>
83.7

> <PUBCHEM_MONOISOTOPIC_WEIGHT>
497.24268987

> <PUBCHEM_TOTAL_CHARGE>
0

> <PUBCHEM_HEAVY_ATOM_COUNT>
37

> <PUBCHEM_ATOM_DEF_STEREO_COUNT>
0

> <PUBCHEM_ATOM_UDEF_STEREO_COUNT>
0

> <PUBCHEM_BOND_DEF_STEREO_COUNT>
0

> <PUBCHEM_BOND_UDEF_STEREO_COUNT>
0

> <PUBCHEM_ISOTOPIC_ATOM_COUNT>
0

> <PUBCHEM_COMPONENT_COUNT>
1

> <PUBCHEM_CACTVS_TAUTO_COUNT>
-1

> <PUBCHEM_COORDINATE_TYPE>
1
5
255

> <PUBCHEM_BONDANNOTATIONS>
13  15  8
13  16  8
15  18  8
16  17  8
17  19  8
18  19  8
22  26  8
22  27  8
23  25  8
23  30  8
24  28  8
24  29  8
25  31  8
26  28  8
27  29  8
3  36  8
3  8  8
30  33  8
31  32  8
32  33  8
7  35  8
7  36  8
8  35  8

$$$$
