9796720
  -OEChem-09292322122D

 42 45  0     0  0  0  0  0  0999 V2000
    2.0000   -0.9010    0.0000 F   0  0  0  0  0  0  0  0  0  0  0  0
    7.6279   -1.0350    0.0000 N   0  0  0  0  0  0  0  0  0  0  0  0
    8.6279    0.6970    0.0000 N   0  0  0  0  0  0  0  0  0  0  0  0
    5.5443   -2.7058    0.0000 N   0  0  0  0  0  0  0  0  0  0  0  0
    8.6279    2.4291    0.0000 N   0  0  0  0  0  0  0  0  0  0  0  0
    7.1279   -0.1690    0.0000 C   0  0  0  0  0  0  0  0  0  0  0  0
    8.6279   -1.0350    0.0000 C   0  0  0  0  0  0  0  0  0  0  0  0
    7.6279    0.6970    0.0000 C   0  0  0  0  0  0  0  0  0  0  0  0
    9.1279   -0.1690    0.0000 C   0  0  0  0  0  0  0  0  0  0  0  0
    7.1279   -1.9010    0.0000 C   0  0  0  0  0  0  0  0  0  0  0  0
    6.1279   -1.9010    0.0000 C   0  0  0  0  0  0  0  0  0  0  0  0
    9.1279    1.5630    0.0000 C   0  0  0  0  0  0  0  0  0  0  0  0
    5.5443   -1.0963    0.0000 C   0  0  0  0  0  0  0  0  0  0  0  0
    4.5981   -1.4010    0.0000 C   0  0  0  0  0  0  0  0  0  0  0  0
    4.5981   -2.4010    0.0000 C   0  0  0  0  0  0  0  0  0  0  0  0
   10.1279    1.5630    0.0000 C   0  0  0  0  0  0  0  0  0  0  0  0
    3.7320   -0.9010    0.0000 C   0  0  0  0  0  0  0  0  0  0  0  0
    3.7320   -2.9010    0.0000 C   0  0  0  0  0  0  0  0  0  0  0  0
    2.8660   -1.4010    0.0000 C   0  0  0  0  0  0  0  0  0  0  0  0
    2.8660   -2.4010    0.0000 C   0  0  0  0  0  0  0  0  0  0  0  0
   10.6279    2.4291    0.0000 C   0  0  0  0  0  0  0  0  0  0  0  0
    9.1279    3.2951    0.0000 C   0  0  0  0  0  0  0  0  0  0  0  0
   10.1279    3.2951    0.0000 C   0  0  0  0  0  0  0  0  0  0  0  0
    6.6530    0.2295    0.0000 H   0  0  0  0  0  0  0  0  0  0  0  0
    6.6530   -0.5675    0.0000 H   0  0  0  0  0  0  0  0  0  0  0  0
    8.5202   -1.6456    0.0000 H   0  0  0  0  0  0  0  0  0  0  0  0
    9.2105   -1.2471    0.0000 H   0  0  0  0  0  0  0  0  0  0  0  0
    7.7356    1.3076    0.0000 H   0  0  0  0  0  0  0  0  0  0  0  0
    7.0453    0.9091    0.0000 H   0  0  0  0  0  0  0  0  0  0  0  0
    9.6028   -0.5675    0.0000 H   0  0  0  0  0  0  0  0  0  0  0  0
    9.6028    0.2295    0.0000 H   0  0  0  0  0  0  0  0  0  0  0  0
    7.0202   -2.5116    0.0000 H   0  0  0  0  0  0  0  0  0  0  0  0
    7.7105   -2.1131    0.0000 H   0  0  0  0  0  0  0  0  0  0  0  0
    5.7369   -0.5070    0.0000 H   0  0  0  0  0  0  0  0  0  0  0  0
    5.7369   -3.2951    0.0000 H   0  0  0  0  0  0  0  0  0  0  0  0
   10.4379    1.0261    0.0000 H   0  0  0  0  0  0  0  0  0  0  0  0
    3.7320   -0.2810    0.0000 H   0  0  0  0  0  0  0  0  0  0  0  0
    3.7320   -3.5210    0.0000 H   0  0  0  0  0  0  0  0  0  0  0  0
    2.3291   -2.7110    0.0000 H   0  0  0  0  0  0  0  0  0  0  0  0
   11.2479    2.4291    0.0000 H   0  0  0  0  0  0  0  0  0  0  0  0
    8.8179    3.8320    0.0000 H   0  0  0  0  0  0  0  0  0  0  0  0
   10.4379    3.8320    0.0000 H   0  0  0  0  0  0  0  0  0  0  0  0
  1 19  1  0  0  0  0
  2  6  1  0  0  0  0
  2  7  1  0  0  0  0
  2 10  1  0  0  0  0
  3  8  1  0  0  0  0
  3  9  1  0  0  0  0
  3 12  1  0  0  0  0
  4 11  1  0  0  0  0
  4 15  1  0  0  0  0
  4 35  1  0  0  0  0
  5 12  1  0  0  0  0
  5 22  2  0  0  0  0
  6  8  1  0  0  0  0
  6 24  1  0  0  0  0
  6 25  1  0  0  0  0
  7  9  1  0  0  0  0
  7 26  1  0  0  0  0
  7 27  1  0  0  0  0
  8 28  1  0  0  0  0
  8 29  1  0  0  0  0
  9 30  1  0  0  0  0
  9 31  1  0  0  0  0
 10 11  1  0  0  0  0
 10 32  1  0  0  0  0
 10 33  1  0  0  0  0
 11 13  2  0  0  0  0
 12 16  2  0  0  0  0
 13 14  1  0  0  0  0
 13 34  1  0  0  0  0
 14 15  2  0  0  0  0
 14 17  1  0  0  0  0
 15 18  1  0  0  0  0
 16 21  1  0  0  0  0
 16 36  1  0  0  0  0
 17 19  2  0  0  0  0
 17 37  1  0  0  0  0
 18 20  2  0  0  0  0
 18 38  1  0  0  0  0
 19 20  1  0  0  0  0
 20 39  1  0  0  0  0
 21 23  2  0  0  0  0
 21 40  1  0  0  0  0
 22 23  1  0  0  0  0
 22 41  1  0  0  0  0
 23 42  1  0  0  0  0
M  END
> <PUBCHEM_COMPOUND_CID>
9796720

> <PUBCHEM_COMPOUND_CANONICALIZED>
1

> <PUBCHEM_CACTVS_COMPLEXITY>
385

> <PUBCHEM_CACTVS_HBOND_ACCEPTOR>
4

> <PUBCHEM_CACTVS_HBOND_DONOR>
1

> <PUBCHEM_CACTVS_ROTATABLE_BOND>
3

> <PUBCHEM_CACTVS_SUBSKEYS>
AAADceB7gQAAAAAAAAAAAAAAAAAAAWAAAAA8WIAAAAAAAFgB/AAAHQAQAAAADAjBHgw98PPJkACgAzZnZACCgCkxAiAJ2SA4ZJiIYOLAmZGUIAhokALIyCcQgIAOAAAAAAACAAAAAAAAAAQAAAAAAAAAAA==

> <PUBCHEM_IUPAC_OPENEYE_NAME>
5-fluoro-2-[[4-(2-pyridyl)piperazin-1-yl]methyl]-1H-indole

> <PUBCHEM_IUPAC_CAS_NAME>
5-fluoro-2-[[4-(2-pyridinyl)-1-piperazinyl]methyl]-1H-indole

> <PUBCHEM_IUPAC_NAME_MARKUP>
5-fluoro-2-[(4-pyridin-2-ylpiperazin-1-yl)methyl]-1<I>H</I>-indole

> <PUBCHEM_IUPAC_NAME>
5-fluoro-2-[(4-pyridin-2-ylpiperazin-1-yl)methyl]-1H-indole

> <PUBCHEM_IUPAC_SYSTEMATIC_NAME>
5-fluoranyl-2-[(4-pyridin-2-ylpiperazin-1-yl)methyl]-1H-indole

> <PUBCHEM_IUPAC_TRADITIONAL_NAME>
5-fluoro-2-[[4-(2-pyridyl)piperazino]methyl]-1H-indole

> <PUBCHEM_IUPAC_INCHI>
InChI=1S/C18H19FN4/c19-15-4-5-17-14(11-15)12-16(21-17)13-22-7-9-23(10-8-22)18-3-1-2-6-20-18/h1-6,11-12,21H,7-10,13H2

> <PUBCHEM_IUPAC_INCHIKEY>
PQOIDBZLMJMYCD-UHFFFAOYSA-N

> <PUBCHEM_XLOGP3_AA>
2.9

> <PUBCHEM_EXACT_MASS>
310.15937479

> <PUBCHEM_MOLECULAR_FORMULA>
C18H19FN4

> <PUBCHEM_MOLECULAR_WEIGHT>
310.4

> <PUBCHEM_OPENEYE_CAN_SMILES>
C1CN(CCN1CC2=CC3=C(N2)C=CC(=C3)F)C4=CC=CC=N4

> <PUBCHEM_OPENEYE_ISO_SMILES>
C1CN(CCN1CC2=CC3=C(N2)C=CC(=C3)F)C4=CC=CC=N4

> <PUBCHEM_CACTVS_TPSA>
35.2

> <PUBCHEM_MONOISOTOPIC_WEIGHT>
310.15937479

> <PUBCHEM_TOTAL_CHARGE>
0

> <PUBCHEM_HEAVY_ATOM_COUNT>
23

> <PUBCHEM_ATOM_DEF_STEREO_COUNT>
0

> <PUBCHEM_ATOM_UDEF_STEREO_COUNT>
0

> <PUBCHEM_BOND_DEF_STEREO_COUNT>
0

> <PUBCHEM_BOND_UDEF_STEREO_COUNT>
0

> <PUBCHEM_ISOTOPIC_ATOM_COUNT>
0

> <PUBCHEM_COMPONENT_COUNT>
1

> <PUBCHEM_CACTVS_TAUTO_COUNT>
1

> <PUBCHEM_COORDINATE_TYPE>
1
5
255

> <PUBCHEM_BONDANNOTATIONS>
11  13  8
12  16  8
13  14  8
14  15  8
14  17  8
15  18  8
16  21  8
17  19  8
18  20  8
19  20  8
21  23  8
22  23  8
4  11  8
4  15  8
5  12  8
5  22  8

$$$$
