155539653
  -OEChem-09292322062D

233242  0     1  0  0  0  0  0999 V2000
    2.0000    1.4353    0.0000 F   0  0  0  0  0  0  0  0  0  0  0  0
   61.1921   -6.2943    0.0000 F   0  0  0  0  0  0  0  0  0  0  0  0
   11.2788    1.4073    0.0000 O   0  0  0  0  0  0  0  0  0  0  0  0
   52.1103   -4.3926    0.0000 O   0  0  0  0  0  0  0  0  0  0  0  0
    6.5000    0.5693    0.0000 O   0  0  0  0  0  0  0  0  0  0  0  0
   56.6104   -6.2058    0.0000 O   0  0  0  0  0  0  0  0  0  0  0  0
   18.5155    1.5364    0.0000 O   0  0  0  0  0  0  0  0  0  0  0  0
   45.0585   -2.7616    0.0000 O   0  0  0  0  0  0  0  0  0  0  0  0
   20.8381   -1.2215    0.0000 O   0  0  0  0  0  0  0  0  0  0  0  0
   42.2133   -4.9764    0.0000 O   0  0  0  0  0  0  0  0  0  0  0  0
   24.3877   -0.5890    0.0000 O   0  0  0  0  0  0  0  0  0  0  0  0
   38.8727   -3.6197    0.0000 O   0  0  0  0  0  0  0  0  0  0  0  0
   27.0238   -0.3633    0.0000 O   0  0  0  0  0  0  0  0  0  0  0  0
   36.3411   -2.8509    0.0000 O   0  0  0  0  0  0  0  0  0  0  0  0
   30.5735    0.2691    0.0000 O   0  0  0  0  0  0  0  0  0  0  0  0
   31.9825   -2.8955    0.0000 O   0  0  0  0  0  0  0  0  0  0  0  0
   33.3141    1.4893    0.0000 O   0  0  0  0  0  0  0  0  0  0  0  0
   34.0186   -0.0930    0.0000 O   0  0  0  0  0  0  0  0  0  0  0  0
   11.5878    3.9764    0.0000 N   0  0  3  0  0  0  0  0  0  0  0  0
   52.3421   -1.8154    0.0000 N   0  0  3  0  0  0  0  0  0  0  0  0
    9.0000    3.1674    0.0000 N   0  0  0  0  0  0  0  0  0  0  0  0
   54.7052   -3.1447    0.0000 N   0  0  0  0  0  0  0  0  0  0  0  0
   12.5388    2.6674    0.0000 N   0  0  0  0  0  0  0  0  0  0  0  0
   51.1397   -2.8980    0.0000 N   0  0  0  0  0  0  0  0  0  0  0  0
   17.4975    0.1352    0.0000 N   0  0  0  0  0  0  0  0  0  0  0  0
   45.7630   -4.3439    0.0000 N   0  0  0  0  0  0  0  0  0  0  0  0
   21.8561    0.1798    0.0000 N   0  0  0  0  0  0  0  0  0  0  0  0
   41.5088   -3.3940    0.0000 N   0  0  0  0  0  0  0  0  0  0  0  0
   29.5554   -1.1322    0.0000 N   0  0  0  0  0  0  0  0  0  0  0  0
   33.7050   -3.0766    0.0000 N   0  0  0  0  0  0  0  0  0  0  0  0
   32.1915   -0.9065    0.0000 N   0  0  0  0  0  0  0  0  0  0  0  0
   11.0000    3.1674    0.0000 C   0  0  0  0  0  0  0  0  0  0  0  0
   52.7489   -2.7289    0.0000 C   0  0  0  0  0  0  0  0  0  0  0  0
   10.5000    4.0334    0.0000 C   0  0  0  0  0  0  0  0  0  0  0  0
   10.5000    2.3013    0.0000 C   0  0  0  0  0  0  0  0  0  0  0  0
   53.4180   -1.9858    0.0000 C   0  0  0  0  0  0  0  0  0  0  0  0
   53.0579   -3.6800    0.0000 C   0  0  0  0  0  0  0  0  0  0  0  0
    9.5000    4.0334    0.0000 C   0  0  0  0  0  0  0  0  0  0  0  0
    9.5000    2.3013    0.0000 C   0  0  0  0  0  0  0  0  0  0  0  0
   54.3962   -2.1937    0.0000 C   0  0  0  0  0  0  0  0  0  0  0  0
   54.0360   -3.8879    0.0000 C   0  0  0  0  0  0  0  0  0  0  0  0
   11.5878    2.3583    0.0000 C   0  0  0  0  0  0  0  0  0  0  0  0
   52.0057   -3.3980    0.0000 C   0  0  0  0  0  0  0  0  0  0  0  0
   12.5388    3.6674    0.0000 C   0  0  0  0  0  0  0  0  0  0  0  0
   51.3476   -1.9199    0.0000 C   0  0  0  0  0  0  0  0  0  0  0  0
    8.0000    3.1674    0.0000 C   0  0  0  0  0  0  0  0  0  0  0  0
   55.6833   -3.3526    0.0000 C   0  0  0  0  0  0  0  0  0  0  0  0
   11.2788    4.9274    0.0000 C   0  0  0  0  0  0  0  0  0  0  0  0
   52.8421   -0.9493    0.0000 C   0  0  0  0  0  0  0  0  0  0  0  0
   13.3479    2.0796    0.0000 C   0  0  0  0  0  0  0  0  0  0  0  0
   50.2262   -3.3048    0.0000 C   0  0  0  0  0  0  0  0  0  0  0  0
    7.5000    2.3013    0.0000 C   0  0  0  0  0  0  0  0  0  0  0  0
   55.9923   -4.3037    0.0000 C   0  0  0  0  0  0  0  0  0  0  0  0
   14.2614    2.4863    0.0000 C   0  0  0  0  0  0  0  0  0  0  0  0
   49.4171   -2.7170    0.0000 C   0  0  0  0  0  0  0  0  0  0  0  0
   10.3006    5.1353    0.0000 C   0  0  0  0  0  0  0  0  0  0  0  0
   52.3421   -0.0833    0.0000 C   0  0  0  0  0  0  0  0  0  0  0  0
   11.9479    5.6706    0.0000 C   0  0  0  0  0  0  0  0  0  0  0  0
   53.8421   -0.9493    0.0000 C   0  0  0  0  0  0  0  0  0  0  0  0
    6.5000    2.3013    0.0000 C   0  0  0  0  0  0  0  0  0  0  0  0
   56.9705   -4.5116    0.0000 C   0  0  0  0  0  0  0  0  0  0  0  0
   15.0704    1.8985    0.0000 C   0  0  0  0  0  0  0  0  0  0  0  0
   48.5036   -3.1237    0.0000 C   0  0  0  0  0  0  0  0  0  0  0  0
    9.9916    6.0864    0.0000 C   0  0  0  0  0  0  0  0  0  0  0  0
   52.8421    0.7827    0.0000 C   0  0  0  0  0  0  0  0  0  0  0  0
   11.6389    6.6216    0.0000 C   0  0  0  0  0  0  0  0  0  0  0  0
   54.3421   -0.0833    0.0000 C   0  0  0  0  0  0  0  0  0  0  0  0
   10.6607    6.8295    0.0000 C   0  0  0  0  0  0  0  0  0  0  0  0
   53.8421    0.7827    0.0000 C   0  0  0  0  0  0  0  0  0  0  0  0
    6.0000    1.4353    0.0000 C   0  0  0  0  0  0  0  0  0  0  0  0
   57.2795   -5.4627    0.0000 C   0  0  0  0  0  0  0  0  0  0  0  0
   14.9659    0.9040    0.0000 C   0  0  0  0  0  0  0  0  0  0  0  0
   47.6946   -2.5359    0.0000 C   0  0  0  0  0  0  0  0  0  0  0  0
   15.9840    2.3052    0.0000 C   0  0  0  0  0  0  0  0  0  0  0  0
   48.3991   -4.1182    0.0000 C   0  0  0  0  0  0  0  0  0  0  0  0
    5.0000    1.4353    0.0000 C   0  0  0  0  0  0  0  0  0  0  0  0
   58.2576   -5.6706    0.0000 C   0  0  0  0  0  0  0  0  0  0  0  0
   15.7749    0.3162    0.0000 C   0  0  0  0  0  0  0  0  0  0  0  0
   46.7810   -2.9427    0.0000 C   0  0  0  0  0  0  0  0  0  0  0  0
   16.7930    1.7175    0.0000 C   0  0  0  0  0  0  0  0  0  0  0  0
   47.4855   -4.5250    0.0000 C   0  0  0  0  0  0  0  0  0  0  0  0
   16.6885    0.7229    0.0000 C   0  0  0  0  0  0  0  0  0  0  0  0
   46.6765   -3.9372    0.0000 C   0  0  0  0  0  0  0  0  0  0  0  0
    4.5000    0.5693    0.0000 C   0  0  0  0  0  0  0  0  0  0  0  0
   58.9268   -4.9274    0.0000 C   0  0  0  0  0  0  0  0  0  0  0  0
    4.5000    2.3013    0.0000 C   0  0  0  0  0  0  0  0  0  0  0  0
   58.5667   -6.6216    0.0000 C   0  0  0  0  0  0  0  0  0  0  0  0
    3.5000    0.5693    0.0000 C   0  0  0  0  0  0  0  0  0  0  0  0
   59.9049   -5.1353    0.0000 C   0  0  0  0  0  0  0  0  0  0  0  0
    3.5000    2.3013    0.0000 C   0  0  0  0  0  0  0  0  0  0  0  0
   59.5448   -6.8295    0.0000 C   0  0  0  0  0  0  0  0  0  0  0  0
    3.0000    1.4353    0.0000 C   0  0  0  0  0  0  0  0  0  0  0  0
   60.2139   -6.0864    0.0000 C   0  0  0  0  0  0  0  0  0  0  0  0
   18.4110    0.5419    0.0000 C   0  0  0  0  0  0  0  0  0  0  0  0
   44.9539   -3.7561    0.0000 C   0  0  0  0  0  0  0  0  0  0  0  0
   19.2200   -0.0459    0.0000 C   0  0  0  0  0  0  0  0  0  0  0  0
   44.0404   -4.1629    0.0000 C   0  0  0  0  0  0  0  0  0  0  0  0
   20.1336    0.3608    0.0000 C   0  0  0  0  0  0  0  0  0  0  0  0
   43.2314   -3.5751    0.0000 C   0  0  0  0  0  0  0  0  0  0  0  0
   20.9426   -0.2269    0.0000 C   0  0  0  0  0  0  0  0  0  0  0  0
   42.3178   -3.9818    0.0000 C   0  0  0  0  0  0  0  0  0  0  0  0
   22.6652   -0.4080    0.0000 C   0  0  0  0  0  0  0  0  0  0  0  0
   40.5953   -3.8008    0.0000 C   0  0  0  0  0  0  0  0  0  0  0  0
   23.5787   -0.0012    0.0000 C   0  0  0  0  0  0  0  0  0  0  0  0
   39.7863   -3.2130    0.0000 C   0  0  0  0  0  0  0  0  0  0  0  0
   25.3013   -0.1823    0.0000 C   0  0  0  0  0  0  0  0  0  0  0  0
   38.0637   -3.0320    0.0000 C   0  0  0  0  0  0  0  0  0  0  0  0
   26.1103   -0.7701    0.0000 C   0  0  0  0  0  0  0  0  0  0  0  0
   37.1501   -3.4387    0.0000 C   0  0  0  0  0  0  0  0  0  0  0  0
   27.8328   -0.9511    0.0000 C   0  0  0  0  0  0  0  0  0  0  0  0
   35.4276   -3.2576    0.0000 C   0  0  0  0  0  0  0  0  0  0  0  0
   28.7464   -0.5444    0.0000 C   0  0  0  0  0  0  0  0  0  0  0  0
   34.6186   -2.6698    0.0000 C   0  0  0  0  0  0  0  0  0  0  0  0
   30.4690   -0.7254    0.0000 C   0  0  0  0  0  0  0  0  0  0  0  0
   32.8960   -2.4888    0.0000 C   0  0  0  0  0  0  0  0  0  0  0  0
   31.2780   -1.3132    0.0000 C   0  0  0  0  0  0  0  0  0  0  0  0
   33.0005   -1.4943    0.0000 C   0  0  0  0  0  0  0  0  0  0  0  0
   32.2960    0.0880    0.0000 C   0  0  0  0  0  0  0  0  0  0  0  0
   33.2096    0.4948    0.0000 C   0  0  0  0  0  0  0  0  0  0  0  0
   34.2277    1.8960    0.0000 C   0  0  0  0  0  0  0  0  0  0  0  0
   11.0826    4.2454    0.0000 H   0  0  0  0  0  0  0  0  0  0  0  0
   10.3923    4.6440    0.0000 H   0  0  0  0  0  0  0  0  0  0  0  0
   10.3923    1.6907    0.0000 H   0  0  0  0  0  0  0  0  0  0  0  0
   11.0826    2.0893    0.0000 H   0  0  0  0  0  0  0  0  0  0  0  0
   53.6503   -1.4109    0.0000 H   0  0  0  0  0  0  0  0  0  0  0  0
   52.8922   -1.6572    0.0000 H   0  0  0  0  0  0  0  0  0  0  0  0
   52.4439   -3.7662    0.0000 H   0  0  0  0  0  0  0  0  0  0  0  0
   53.0363   -4.2996    0.0000 H   0  0  0  0  0  0  0  0  0  0  0  0
    9.6077    4.6440    0.0000 H   0  0  0  0  0  0  0  0  0  0  0  0
    8.9174    4.2454    0.0000 H   0  0  0  0  0  0  0  0  0  0  0  0
    8.9174    2.0893    0.0000 H   0  0  0  0  0  0  0  0  0  0  0  0
    9.6077    1.6907    0.0000 H   0  0  0  0  0  0  0  0  0  0  0  0
   55.0101   -2.1074    0.0000 H   0  0  0  0  0  0  0  0  0  0  0  0
   54.4178   -1.5740    0.0000 H   0  0  0  0  0  0  0  0  0  0  0  0
   53.8038   -4.4627    0.0000 H   0  0  0  0  0  0  0  0  0  0  0  0
   54.5618   -4.2164    0.0000 H   0  0  0  0  0  0  0  0  0  0  0  0
   13.1554    3.6025    0.0000 H   0  0  0  0  0  0  0  0  0  0  0  0
   12.6677    4.2738    0.0000 H   0  0  0  0  0  0  0  0  0  0  0  0
   51.3476   -1.2999    0.0000 H   0  0  0  0  0  0  0  0  0  0  0  0
   50.7310   -1.8551    0.0000 H   0  0  0  0  0  0  0  0  0  0  0  0
    8.1077    3.7779    0.0000 H   0  0  0  0  0  0  0  0  0  0  0  0
    7.4174    3.3794    0.0000 H   0  0  0  0  0  0  0  0  0  0  0  0
   56.2973   -3.2664    0.0000 H   0  0  0  0  0  0  0  0  0  0  0  0
   55.7050   -2.7330    0.0000 H   0  0  0  0  0  0  0  0  0  0  0  0
   12.9019    1.6489    0.0000 H   0  0  0  0  0  0  0  0  0  0  0  0
   13.6946    1.5656    0.0000 H   0  0  0  0  0  0  0  0  0  0  0  0
   49.7802   -3.7354    0.0000 H   0  0  0  0  0  0  0  0  0  0  0  0
   50.5729   -3.8188    0.0000 H   0  0  0  0  0  0  0  0  0  0  0  0
    7.3923    1.6907    0.0000 H   0  0  0  0  0  0  0  0  0  0  0  0
    8.0826    2.0893    0.0000 H   0  0  0  0  0  0  0  0  0  0  0  0
   55.3784   -4.3900    0.0000 H   0  0  0  0  0  0  0  0  0  0  0  0
   55.9707   -4.9233    0.0000 H   0  0  0  0  0  0  0  0  0  0  0  0
   14.7074    2.9170    0.0000 H   0  0  0  0  0  0  0  0  0  0  0  0
   13.9147    3.0003    0.0000 H   0  0  0  0  0  0  0  0  0  0  0  0
   49.8631   -2.2863    0.0000 H   0  0  0  0  0  0  0  0  0  0  0  0
   49.0704   -2.2030    0.0000 H   0  0  0  0  0  0  0  0  0  0  0  0
    9.8858    4.6746    0.0000 H   0  0  0  0  0  0  0  0  0  0  0  0
   51.7221   -0.0833    0.0000 H   0  0  0  0  0  0  0  0  0  0  0  0
   12.5544    5.5417    0.0000 H   0  0  0  0  0  0  0  0  0  0  0  0
   54.1521   -1.4863    0.0000 H   0  0  0  0  0  0  0  0  0  0  0  0
    6.6077    2.9119    0.0000 H   0  0  0  0  0  0  0  0  0  0  0  0
    5.9174    2.5134    0.0000 H   0  0  0  0  0  0  0  0  0  0  0  0
   57.5844   -4.4253    0.0000 H   0  0  0  0  0  0  0  0  0  0  0  0
   56.9921   -3.8920    0.0000 H   0  0  0  0  0  0  0  0  0  0  0  0
    9.3852    6.2153    0.0000 H   0  0  0  0  0  0  0  0  0  0  0  0
   52.5321    1.3197    0.0000 H   0  0  0  0  0  0  0  0  0  0  0  0
   12.0537    7.0824    0.0000 H   0  0  0  0  0  0  0  0  0  0  0  0
   54.9621   -0.0833    0.0000 H   0  0  0  0  0  0  0  0  0  0  0  0
   10.4691    7.4192    0.0000 H   0  0  0  0  0  0  0  0  0  0  0  0
   54.1521    1.3197    0.0000 H   0  0  0  0  0  0  0  0  0  0  0  0
   14.3995    0.6518    0.0000 H   0  0  0  0  0  0  0  0  0  0  0  0
   47.7594   -1.9193    0.0000 H   0  0  0  0  0  0  0  0  0  0  0  0
   16.0488    2.9219    0.0000 H   0  0  0  0  0  0  0  0  0  0  0  0
   48.9007   -4.4827    0.0000 H   0  0  0  0  0  0  0  0  0  0  0  0
   15.7101   -0.3004    0.0000 H   0  0  0  0  0  0  0  0  0  0  0  0
   46.2794   -2.5782    0.0000 H   0  0  0  0  0  0  0  0  0  0  0  0
   17.3594    1.9696    0.0000 H   0  0  0  0  0  0  0  0  0  0  0  0
   47.4207   -5.1416    0.0000 H   0  0  0  0  0  0  0  0  0  0  0  0
    4.8100    0.0323    0.0000 H   0  0  0  0  0  0  0  0  0  0  0  0
   58.7352   -4.3378    0.0000 H   0  0  0  0  0  0  0  0  0  0  0  0
    4.8100    2.8383    0.0000 H   0  0  0  0  0  0  0  0  0  0  0  0
   58.1518   -7.0824    0.0000 H   0  0  0  0  0  0  0  0  0  0  0  0
   17.4327   -0.4814    0.0000 H   0  0  0  0  0  0  0  0  0  0  0  0
   45.6982   -4.9605    0.0000 H   0  0  0  0  0  0  0  0  0  0  0  0
    3.1900    0.0323    0.0000 H   0  0  0  0  0  0  0  0  0  0  0  0
   60.3198   -4.6746    0.0000 H   0  0  0  0  0  0  0  0  0  0  0  0
    3.1900    2.8383    0.0000 H   0  0  0  0  0  0  0  0  0  0  0  0
   59.7364   -7.4192    0.0000 H   0  0  0  0  0  0  0  0  0  0  0  0
   18.7740   -0.4766    0.0000 H   0  0  0  0  0  0  0  0  0  0  0  0
   19.5667   -0.5599    0.0000 H   0  0  0  0  0  0  0  0  0  0  0  0
   43.5944   -4.5936    0.0000 H   0  0  0  0  0  0  0  0  0  0  0  0
   44.3871   -4.6769    0.0000 H   0  0  0  0  0  0  0  0  0  0  0  0
   20.5796    0.7915    0.0000 H   0  0  0  0  0  0  0  0  0  0  0  0
   19.7869    0.8749    0.0000 H   0  0  0  0  0  0  0  0  0  0  0  0
   43.6774   -3.1444    0.0000 H   0  0  0  0  0  0  0  0  0  0  0  0
   42.8847   -3.0611    0.0000 H   0  0  0  0  0  0  0  0  0  0  0  0
   21.9209    0.7964    0.0000 H   0  0  0  0  0  0  0  0  0  0  0  0
   41.5736   -2.7774    0.0000 H   0  0  0  0  0  0  0  0  0  0  0  0
   22.2192   -0.8387    0.0000 H   0  0  0  0  0  0  0  0  0  0  0  0
   23.0119   -0.9220    0.0000 H   0  0  0  0  0  0  0  0  0  0  0  0
   40.1493   -4.2315    0.0000 H   0  0  0  0  0  0  0  0  0  0  0  0
   40.9420   -4.3148    0.0000 H   0  0  0  0  0  0  0  0  0  0  0  0
   24.0247    0.4294    0.0000 H   0  0  0  0  0  0  0  0  0  0  0  0
   23.2320    0.5128    0.0000 H   0  0  0  0  0  0  0  0  0  0  0  0
   40.2322   -2.7823    0.0000 H   0  0  0  0  0  0  0  0  0  0  0  0
   39.4396   -2.6990    0.0000 H   0  0  0  0  0  0  0  0  0  0  0  0
   25.7473    0.2484    0.0000 H   0  0  0  0  0  0  0  0  0  0  0  0
   24.9546    0.3317    0.0000 H   0  0  0  0  0  0  0  0  0  0  0  0
   38.5097   -2.6013    0.0000 H   0  0  0  0  0  0  0  0  0  0  0  0
   37.7170   -2.5179    0.0000 H   0  0  0  0  0  0  0  0  0  0  0  0
   25.6643   -1.2008    0.0000 H   0  0  0  0  0  0  0  0  0  0  0  0
   26.4570   -1.2841    0.0000 H   0  0  0  0  0  0  0  0  0  0  0  0
   36.7042   -3.8694    0.0000 H   0  0  0  0  0  0  0  0  0  0  0  0
   37.4968   -3.9527    0.0000 H   0  0  0  0  0  0  0  0  0  0  0  0
   27.3869   -1.3818    0.0000 H   0  0  0  0  0  0  0  0  0  0  0  0
   28.1795   -1.4651    0.0000 H   0  0  0  0  0  0  0  0  0  0  0  0
   34.9816   -3.6883    0.0000 H   0  0  0  0  0  0  0  0  0  0  0  0
   35.7743   -3.7716    0.0000 H   0  0  0  0  0  0  0  0  0  0  0  0
   29.1924   -0.1137    0.0000 H   0  0  0  0  0  0  0  0  0  0  0  0
   28.3997   -0.0304    0.0000 H   0  0  0  0  0  0  0  0  0  0  0  0
   35.0646   -2.2392    0.0000 H   0  0  0  0  0  0  0  0  0  0  0  0
   34.2719   -2.1558    0.0000 H   0  0  0  0  0  0  0  0  0  0  0  0
   29.4906   -1.7488    0.0000 H   0  0  0  0  0  0  0  0  0  0  0  0
   33.6402   -3.6932    0.0000 H   0  0  0  0  0  0  0  0  0  0  0  0
   30.8320   -1.7439    0.0000 H   0  0  0  0  0  0  0  0  0  0  0  0
   31.6247   -1.8272    0.0000 H   0  0  0  0  0  0  0  0  0  0  0  0
   33.5965   -1.6652    0.0000 H   0  0  0  0  0  0  0  0  0  0  0  0
   33.2723   -0.9370    0.0000 H   0  0  0  0  0  0  0  0  0  0  0  0
   32.1461    0.6896    0.0000 H   0  0  0  0  0  0  0  0  0  0  0  0
   31.6776    0.0448    0.0000 H   0  0  0  0  0  0  0  0  0  0  0  0
   34.4798    1.3296    0.0000 H   0  0  0  0  0  0  0  0  0  0  0  0
   34.7941    2.1482    0.0000 H   0  0  0  0  0  0  0  0  0  0  0  0
   33.9755    2.4624    0.0000 H   0  0  0  0  0  0  0  0  0  0  0  0
  1 92  1  0  0  0  0
  2 93  1  0  0  0  0
  3 42  2  0  0  0  0
  4 43  2  0  0  0  0
  5 70  2  0  0  0  0
  6 71  2  0  0  0  0
  7 94  2  0  0  0  0
  8 95  2  0  0  0  0
  9100  2  0  0  0  0
 10101  2  0  0  0  0
 11104  1  0  0  0  0
 11106  1  0  0  0  0
 12105  1  0  0  0  0
 12107  1  0  0  0  0
 13108  1  0  0  0  0
 13110  1  0  0  0  0
 14109  1  0  0  0  0
 14111  1  0  0  0  0
 15114  2  0  0  0  0
 16115  2  0  0  0  0
 17119  1  0  0  0  0
 17120  1  0  0  0  0
 18119  2  0  0  0  0
 19 32  1  0  0  0  0
 19 44  1  0  0  0  0
 19 48  1  0  0  0  0
 20 33  1  0  0  0  0
 20 45  1  0  0  0  0
 20 49  1  0  0  0  0
 21 38  1  0  0  0  0
 21 39  1  0  0  0  0
 21 46  1  0  0  0  0
 22 40  1  0  0  0  0
 22 41  1  0  0  0  0
 22 47  1  0  0  0  0
 23 42  1  0  0  0  0
 23 44  1  0  0  0  0
 23 50  1  0  0  0  0
 24 43  1  0  0  0  0
 24 45  1  0  0  0  0
 24 51  1  0  0  0  0
 25 82  1  0  0  0  0
 25 94  1  0  0  0  0
 25183  1  0  0  0  0
 26 83  1  0  0  0  0
 26 95  1  0  0  0  0
 26184  1  0  0  0  0
 27100  1  0  0  0  0
 27102  1  0  0  0  0
 27197  1  0  0  0  0
 28101  1  0  0  0  0
 28103  1  0  0  0  0
 28198  1  0  0  0  0
 29112  1  0  0  0  0
 29114  1  0  0  0  0
 29223  1  0  0  0  0
 30113  1  0  0  0  0
 30115  1  0  0  0  0
 30224  1  0  0  0  0
 31116  1  0  0  0  0
 31117  1  0  0  0  0
 31118  1  0  0  0  0
 32 34  1  0  0  0  0
 32 35  1  0  0  0  0
 32 42  1  0  0  0  0
 33 36  1  0  0  0  0
 33 37  1  0  0  0  0
 33 43  1  0  0  0  0
 34 38  1  0  0  0  0
 34121  1  0  0  0  0
 34122  1  0  0  0  0
 35 39  1  0  0  0  0
 35123  1  0  0  0  0
 35124  1  0  0  0  0
 36 40  1  0  0  0  0
 36125  1  0  0  0  0
 36126  1  0  0  0  0
 37 41  1  0  0  0  0
 37127  1  0  0  0  0
 37128  1  0  0  0  0
 38129  1  0  0  0  0
 38130  1  0  0  0  0
 39131  1  0  0  0  0
 39132  1  0  0  0  0
 40133  1  0  0  0  0
 40134  1  0  0  0  0
 41135  1  0  0  0  0
 41136  1  0  0  0  0
 44137  1  0  0  0  0
 44138  1  0  0  0  0
 45139  1  0  0  0  0
 45140  1  0  0  0  0
 46 52  1  0  0  0  0
 46141  1  0  0  0  0
 46142  1  0  0  0  0
 47 53  1  0  0  0  0
 47143  1  0  0  0  0
 47144  1  0  0  0  0
 48 56  2  0  0  0  0
 48 58  1  0  0  0  0
 49 57  2  0  0  0  0
 49 59  1  0  0  0  0
 50 54  1  0  0  0  0
 50145  1  0  0  0  0
 50146  1  0  0  0  0
 51 55  1  0  0  0  0
 51147  1  0  0  0  0
 51148  1  0  0  0  0
 52 60  1  0  0  0  0
 52149  1  0  0  0  0
 52150  1  0  0  0  0
 53 61  1  0  0  0  0
 53151  1  0  0  0  0
 53152  1  0  0  0  0
 54 62  1  0  0  0  0
 54153  1  0  0  0  0
 54154  1  0  0  0  0
 55 63  1  0  0  0  0
 55155  1  0  0  0  0
 55156  1  0  0  0  0
 56 64  1  0  0  0  0
 56157  1  0  0  0  0
 57 65  1  0  0  0  0
 57158  1  0  0  0  0
 58 66  2  0  0  0  0
 58159  1  0  0  0  0
 59 67  2  0  0  0  0
 59160  1  0  0  0  0
 60 70  1  0  0  0  0
 60161  1  0  0  0  0
 60162  1  0  0  0  0
 61 71  1  0  0  0  0
 61163  1  0  0  0  0
 61164  1  0  0  0  0
 62 72  2  0  0  0  0
 62 74  1  0  0  0  0
 63 73  2  0  0  0  0
 63 75  1  0  0  0  0
 64 68  2  0  0  0  0
 64165  1  0  0  0  0
 65 69  2  0  0  0  0
 65166  1  0  0  0  0
 66 68  1  0  0  0  0
 66167  1  0  0  0  0
 67 69  1  0  0  0  0
 67168  1  0  0  0  0
 68169  1  0  0  0  0
 69170  1  0  0  0  0
 70 76  1  0  0  0  0
 71 77  1  0  0  0  0
 72 78  1  0  0  0  0
 72171  1  0  0  0  0
 73 79  1  0  0  0  0
 73172  1  0  0  0  0
 74 80  2  0  0  0  0
 74173  1  0  0  0  0
 75 81  2  0  0  0  0
 75174  1  0  0  0  0
 76 84  2  0  0  0  0
 76 86  1  0  0  0  0
 77 85  2  0  0  0  0
 77 87  1  0  0  0  0
 78 82  2  0  0  0  0
 78175  1  0  0  0  0
 79 83  2  0  0  0  0
 79176  1  0  0  0  0
 80 82  1  0  0  0  0
 80177  1  0  0  0  0
 81 83  1  0  0  0  0
 81178  1  0  0  0  0
 84 88  1  0  0  0  0
 84179  1  0  0  0  0
 85 89  1  0  0  0  0
 85180  1  0  0  0  0
 86 90  2  0  0  0  0
 86181  1  0  0  0  0
 87 91  2  0  0  0  0
 87182  1  0  0  0  0
 88 92  2  0  0  0  0
 88185  1  0  0  0  0
 89 93  2  0  0  0  0
 89186  1  0  0  0  0
 90 92  1  0  0  0  0
 90187  1  0  0  0  0
 91 93  1  0  0  0  0
 91188  1  0  0  0  0
 94 96  1  0  0  0  0
 95 97  1  0  0  0  0
 96 98  1  0  0  0  0
 96189  1  0  0  0  0
 96190  1  0  0  0  0
 97 99  1  0  0  0  0
 97191  1  0  0  0  0
 97192  1  0  0  0  0
 98100  1  0  0  0  0
 98193  1  0  0  0  0
 98194  1  0  0  0  0
 99101  1  0  0  0  0
 99195  1  0  0  0  0
 99196  1  0  0  0  0
102104  1  0  0  0  0
102199  1  0  0  0  0
102200  1  0  0  0  0
103105  1  0  0  0  0
103201  1  0  0  0  0
103202  1  0  0  0  0
104203  1  0  0  0  0
104204  1  0  0  0  0
105205  1  0  0  0  0
105206  1  0  0  0  0
106108  1  0  0  0  0
106207  1  0  0  0  0
106208  1  0  0  0  0
107109  1  0  0  0  0
107209  1  0  0  0  0
107210  1  0  0  0  0
108211  1  0  0  0  0
108212  1  0  0  0  0
109213  1  0  0  0  0
109214  1  0  0  0  0
110112  1  0  0  0  0
110215  1  0  0  0  0
110216  1  0  0  0  0
111113  1  0  0  0  0
111217  1  0  0  0  0
111218  1  0  0  0  0
112219  1  0  0  0  0
112220  1  0  0  0  0
113221  1  0  0  0  0
113222  1  0  0  0  0
114116  1  0  0  0  0
115117  1  0  0  0  0
116225  1  0  0  0  0
116226  1  0  0  0  0
117227  1  0  0  0  0
117228  1  0  0  0  0
118119  1  0  0  0  0
118229  1  0  0  0  0
118230  1  0  0  0  0
120231  1  0  0  0  0
120232  1  0  0  0  0
120233  1  0  0  0  0
M  END
> <PUBCHEM_COMPOUND_CID>
155539653

> <PUBCHEM_COMPOUND_CANONICALIZED>
1

> <PUBCHEM_CACTVS_COMPLEXITY>
2980

> <PUBCHEM_CACTVS_HBOND_ACCEPTOR>
23

> <PUBCHEM_CACTVS_HBOND_DONOR>
6

> <PUBCHEM_CACTVS_ROTATABLE_BOND>
51

> <PUBCHEM_CACTVS_SUBSKEYS>
AAADcfB//4AAAAAAAAAAAAAAAAAAAWLAAAA8eMGDAAAAAAABVAAAHwAQAAAADIzhmA4zyIPABACIAqXSWACCAAAlAgAIiIGIZMiLYDLA1bGXIQholwLayacdiICOCAAAAAAAAAAQAAAAAAAAAAAAAAAAAA==

> <PUBCHEM_IUPAC_OPENEYE_NAME>
methyl 2-[bis[2-[2-[2-[2-[[4-[4-[2-[8-[4-(4-fluorophenyl)-4-oxo-butyl]-4-oxo-1-phenyl-1,3,8-triazaspiro[4.5]decan-3-yl]ethyl]anilino]-4-oxo-butanoyl]amino]ethoxy]ethoxy]ethylamino]-2-oxo-ethyl]amino]acetate

> <PUBCHEM_IUPAC_CAS_NAME>
2-[bis[2-[2-[2-[2-[[4-[4-[2-[8-[4-(4-fluorophenyl)-4-oxobutyl]-4-oxo-1-phenyl-1,3,8-triazaspiro[4.5]decan-3-yl]ethyl]anilino]-1,4-dioxobutyl]amino]ethoxy]ethoxy]ethylamino]-2-oxoethyl]amino]acetic acid methyl ester

> <PUBCHEM_IUPAC_NAME_MARKUP>
methyl 2-[bis[2-[2-[2-[2-[[4-[4-[2-[8-[4-(4-fluorophenyl)-4-oxobutyl]-4-oxo-1-phenyl-1,3,8-triazaspiro[4.5]decan-3-yl]ethyl]anilino]-4-oxobutanoyl]amino]ethoxy]ethoxy]ethylamino]-2-oxoethyl]amino]acetate

> <PUBCHEM_IUPAC_NAME>
methyl 2-[bis[2-[2-[2-[2-[[4-[4-[2-[8-[4-(4-fluorophenyl)-4-oxobutyl]-4-oxo-1-phenyl-1,3,8-triazaspiro[4.5]decan-3-yl]ethyl]anilino]-4-oxobutanoyl]amino]ethoxy]ethoxy]ethylamino]-2-oxoethyl]amino]acetate

> <PUBCHEM_IUPAC_SYSTEMATIC_NAME>
methyl 2-[bis[2-[2-[2-[2-[[4-[[4-[2-[8-[4-(4-fluorophenyl)-4-oxidanylidene-butyl]-4-oxidanylidene-1-phenyl-1,3,8-triazaspiro[4.5]decan-3-yl]ethyl]phenyl]amino]-4-oxidanylidene-butanoyl]amino]ethoxy]ethoxy]ethylamino]-2-oxidanylidene-ethyl]amino]ethanoate

> <PUBCHEM_IUPAC_TRADITIONAL_NAME>
2-[bis[2-[2-[2-[2-[[4-[4-[2-[8-[4-(4-fluorophenyl)-4-keto-butyl]-4-keto-1-phenyl-1,3,8-triazaspiro[4.5]decan-3-yl]ethyl]anilino]-4-keto-butanoyl]amino]ethoxy]ethoxy]ethylamino]-2-keto-ethyl]amino]acetic acid methyl ester

> <PUBCHEM_IUPAC_INCHI>
InChI=1S/C89H113F2N13O16/c1-116-85(113)64-100(62-83(111)94-44-56-119-60-58-117-54-42-92-79(107)32-34-81(109)96-73-28-16-67(17-29-73)36-48-101-65-103(75-10-4-2-5-11-75)88(86(101)114)38-50-98(51-39-88)46-8-14-77(105)69-20-24-71(90)25-21-69)63-84(112)95-45-57-120-61-59-118-55-43-93-80(108)33-35-82(110)97-74-30-18-68(19-31-74)37-49-102-66-104(76-12-6-3-7-13-76)89(87(102)115)40-52-99(53-41-89)47-9-15-78(106)70-22-26-72(91)27-23-70/h2-7,10-13,16-31H,8-9,14-15,32-66H2,1H3,(H,92,107)(H,93,108)(H,94,111)(H,95,112)(H,96,109)(H,97,110)

> <PUBCHEM_IUPAC_INCHIKEY>
GROWLGBJYGHHBJ-UHFFFAOYSA-N

> <PUBCHEM_XLOGP3_AA>
5.7

> <PUBCHEM_EXACT_MASS>
1657.83963089

> <PUBCHEM_MOLECULAR_FORMULA>
C89H113F2N13O16

> <PUBCHEM_MOLECULAR_WEIGHT>
1658.9

> <PUBCHEM_OPENEYE_CAN_SMILES>
COC(=O)CN(CC(=O)NCCOCCOCCNC(=O)CCC(=O)NC1=CC=C(C=C1)CCN2CN(C3(C2=O)CCN(CC3)CCCC(=O)C4=CC=C(C=C4)F)C5=CC=CC=C5)CC(=O)NCCOCCOCCNC(=O)CCC(=O)NC6=CC=C(C=C6)CCN7CN(C8(C7=O)CCN(CC8)CCCC(=O)C9=CC=C(C=C9)F)C1=CC=CC=C1

> <PUBCHEM_OPENEYE_ISO_SMILES>
COC(=O)CN(CC(=O)NCCOCCOCCNC(=O)CCC(=O)NC1=CC=C(C=C1)CCN2CN(C3(C2=O)CCN(CC3)CCCC(=O)C4=CC=C(C=C4)F)C5=CC=CC=C5)CC(=O)NCCOCCOCCNC(=O)CCC(=O)NC6=CC=C(C=C6)CCN7CN(C8(C7=O)CCN(CC8)CCCC(=O)C9=CC=C(C=C9)F)C1=CC=CC=C1

> <PUBCHEM_CACTVS_TPSA>
329

> <PUBCHEM_MONOISOTOPIC_WEIGHT>
1657.83963089

> <PUBCHEM_TOTAL_CHARGE>
0

> <PUBCHEM_HEAVY_ATOM_COUNT>
120

> <PUBCHEM_ATOM_DEF_STEREO_COUNT>
0

> <PUBCHEM_ATOM_UDEF_STEREO_COUNT>
0

> <PUBCHEM_BOND_DEF_STEREO_COUNT>
0

> <PUBCHEM_BOND_UDEF_STEREO_COUNT>
0

> <PUBCHEM_ISOTOPIC_ATOM_COUNT>
0

> <PUBCHEM_COMPONENT_COUNT>
1

> <PUBCHEM_CACTVS_TAUTO_COUNT>
-1

> <PUBCHEM_COORDINATE_TYPE>
1
5
255

> <PUBCHEM_BONDANNOTATIONS>
48  56  8
48  58  8
49  57  8
49  59  8
56  64  8
57  65  8
58  66  8
59  67  8
62  72  8
62  74  8
63  73  8
63  75  8
64  68  8
65  69  8
66  68  8
67  69  8
72  78  8
73  79  8
74  80  8
75  81  8
76  84  8
76  86  8
77  85  8
77  87  8
78  82  8
79  83  8
80  82  8
81  83  8
84  88  8
85  89  8
86  90  8
87  91  8
88  92  8
89  93  8
90  92  8
91  93  8

$$$$
