45260668
  -OEChem-09292322192D

 56 59  0     0  0  0  0  0  0999 V2000
    6.2741    0.0000    0.0000 Cl  0  0  0  0  0  0  0  0  0  0  0  0
    7.7078    3.9757    0.0000 O   0  0  0  0  0  0  0  0  0  0  0  0
    7.3988    6.5448    0.0000 O   0  0  0  0  0  0  0  0  0  0  0  0
    5.1200    4.7848    0.0000 N   0  0  0  0  0  0  0  0  0  0  0  0
    7.1200    4.7848    0.0000 C   0  0  0  0  0  0  0  0  0  0  0  0
    6.6200    3.9187    0.0000 C   0  0  0  0  0  0  0  0  0  0  0  0
    6.6200    5.6508    0.0000 C   0  0  0  0  0  0  0  0  0  0  0  0
    5.6200    3.9187    0.0000 C   0  0  0  0  0  0  0  0  0  0  0  0
    5.6200    5.6508    0.0000 C   0  0  0  0  0  0  0  0  0  0  0  0
    7.7078    5.5938    0.0000 C   0  0  0  0  0  0  0  0  0  0  0  0
    4.1200    4.7848    0.0000 C   0  0  0  0  0  0  0  0  0  0  0  0
    8.6588    5.2848    0.0000 C   0  0  0  0  0  0  0  0  0  0  0  0
    8.6588    4.2848    0.0000 C   0  0  0  0  0  0  0  0  0  0  0  0
    3.6200    3.9187    0.0000 C   0  0  0  0  0  0  0  0  0  0  0  0
    9.4679    5.8725    0.0000 C   0  0  0  0  0  0  0  0  0  0  0  0
    2.6200    3.9187    0.0000 C   0  0  0  0  0  0  0  0  0  0  0  0
   10.3814    5.4658    0.0000 C   0  0  0  0  0  0  0  0  0  0  0  0
    9.3633    6.8671    0.0000 C   0  0  0  0  0  0  0  0  0  0  0  0
   11.1904    6.0536    0.0000 C   0  0  0  0  0  0  0  0  0  0  0  0
    2.1200    4.7848    0.0000 C   0  0  0  0  0  0  0  0  0  0  0  0
    2.1200    3.0527    0.0000 C   0  0  0  0  0  0  0  0  0  0  0  0
   10.1723    7.4548    0.0000 C   0  0  0  0  0  0  0  0  0  0  0  0
   11.0859    7.0481    0.0000 C   0  0  0  0  0  0  0  0  0  0  0  0
   12.1354    5.6153    0.0000 C   0  0  0  0  0  0  0  0  0  0  0  0
    1.1200    4.7848    0.0000 C   0  0  0  0  0  0  0  0  0  0  0  0
    1.1200    3.0527    0.0000 C   0  0  0  0  0  0  0  0  0  0  0  0
   11.9190    7.6733    0.0000 C   0  0  0  0  0  0  0  0  0  0  0  0
    0.6200    3.9187    0.0000 C   0  0  0  0  0  0  0  0  0  0  0  0
   12.9827    6.2210    0.0000 C   0  0  0  0  0  0  0  0  0  0  0  0
   12.8739    7.2570    0.0000 C   0  0  0  0  0  0  0  0  0  0  0  0
    6.5123    3.3082    0.0000 H   0  0  0  0  0  0  0  0  0  0  0  0
    7.2026    3.7067    0.0000 H   0  0  0  0  0  0  0  0  0  0  0  0
    7.2026    5.8628    0.0000 H   0  0  0  0  0  0  0  0  0  0  0  0
    6.5123    6.2614    0.0000 H   0  0  0  0  0  0  0  0  0  0  0  0
    5.0374    3.7067    0.0000 H   0  0  0  0  0  0  0  0  0  0  0  0
    5.7277    3.3082    0.0000 H   0  0  0  0  0  0  0  0  0  0  0  0
    5.7277    6.2614    0.0000 H   0  0  0  0  0  0  0  0  0  0  0  0
    5.0374    5.8628    0.0000 H   0  0  0  0  0  0  0  0  0  0  0  0
    4.2277    5.3953    0.0000 H   0  0  0  0  0  0  0  0  0  0  0  0
    3.5374    4.9968    0.0000 H   0  0  0  0  0  0  0  0  0  0  0  0
    9.1604    3.9203    0.0000 H   0  0  0  0  0  0  0  0  0  0  0  0
    3.5123    3.3082    0.0000 H   0  0  0  0  0  0  0  0  0  0  0  0
    4.2026    3.7067    0.0000 H   0  0  0  0  0  0  0  0  0  0  0  0
   10.4462    4.8492    0.0000 H   0  0  0  0  0  0  0  0  0  0  0  0
    8.7969    7.1192    0.0000 H   0  0  0  0  0  0  0  0  0  0  0  0
    2.4300    5.3217    0.0000 H   0  0  0  0  0  0  0  0  0  0  0  0
    2.4300    2.5158    0.0000 H   0  0  0  0  0  0  0  0  0  0  0  0
   10.1075    8.0714    0.0000 H   0  0  0  0  0  0  0  0  0  0  0  0
   12.1930    4.9980    0.0000 H   0  0  0  0  0  0  0  0  0  0  0  0
    0.8100    5.3217    0.0000 H   0  0  0  0  0  0  0  0  0  0  0  0
    0.8100    2.5158    0.0000 H   0  0  0  0  0  0  0  0  0  0  0  0
   11.8471    8.2891    0.0000 H   0  0  0  0  0  0  0  0  0  0  0  0
    0.0000    3.9187    0.0000 H   0  0  0  0  0  0  0  0  0  0  0  0
   13.5482    5.9667    0.0000 H   0  0  0  0  0  0  0  0  0  0  0  0
   13.3740    7.6233    0.0000 H   0  0  0  0  0  0  0  0  0  0  0  0
    7.2741    0.0000    0.0000 H   0  0  0  0  0  0  0  0  0  0  0  0
  1 56  1  0  0  0  0
  2  5  1  0  0  0  0
  2 13  1  0  0  0  0
  3 10  2  0  0  0  0
  4  8  1  0  0  0  0
  4  9  1  0  0  0  0
  4 11  1  0  0  0  0
  5  6  1  0  0  0  0
  5  7  1  0  0  0  0
  5 10  1  0  0  0  0
  6  8  1  0  0  0  0
  6 31  1  0  0  0  0
  6 32  1  0  0  0  0
  7  9  1  0  0  0  0
  7 33  1  0  0  0  0
  7 34  1  0  0  0  0
  8 35  1  0  0  0  0
  8 36  1  0  0  0  0
  9 37  1  0  0  0  0
  9 38  1  0  0  0  0
 10 12  1  0  0  0  0
 11 14  1  0  0  0  0
 11 39  1  0  0  0  0
 11 40  1  0  0  0  0
 12 13  2  0  0  0  0
 12 15  1  0  0  0  0
 13 41  1  0  0  0  0
 14 16  1  0  0  0  0
 14 42  1  0  0  0  0
 14 43  1  0  0  0  0
 15 17  2  0  0  0  0
 15 18  1  0  0  0  0
 16 20  2  0  0  0  0
 16 21  1  0  0  0  0
 17 19  1  0  0  0  0
 17 44  1  0  0  0  0
 18 22  2  0  0  0  0
 18 45  1  0  0  0  0
 19 23  1  0  0  0  0
 19 24  2  0  0  0  0
 20 25  1  0  0  0  0
 20 46  1  0  0  0  0
 21 26  2  0  0  0  0
 21 47  1  0  0  0  0
 22 23  1  0  0  0  0
 22 48  1  0  0  0  0
 23 27  2  0  0  0  0
 24 29  1  0  0  0  0
 24 49  1  0  0  0  0
 25 28  2  0  0  0  0
 25 50  1  0  0  0  0
 26 28  1  0  0  0  0
 26 51  1  0  0  0  0
 27 30  1  0  0  0  0
 27 52  1  0  0  0  0
 28 53  1  0  0  0  0
 29 30  2  0  0  0  0
 29 54  1  0  0  0  0
 30 55  1  0  0  0  0
M  END
> <PUBCHEM_COMPOUND_CID>
45260668

> <PUBCHEM_COMPOUND_CANONICALIZED>
1

> <PUBCHEM_CACTVS_COMPLEXITY>
612

> <PUBCHEM_CACTVS_HBOND_ACCEPTOR>
3

> <PUBCHEM_CACTVS_HBOND_DONOR>
1

> <PUBCHEM_CACTVS_ROTATABLE_BOND>
4

> <PUBCHEM_CACTVS_SUBSKEYS>
AAADceB6MAAEAAAAAAAAAAAAAAAAAQAAAAA8YMEAAAAAAADBVAAAHgAAAAAADEThmAYwAMMABACIAqBSAAICCAAgIAAIiAFIAMgIIDKAlRWEIAAmwACIiIecyOCOwAACAAAQAACAAAQAACAAAAAAAAAAAA==

> <PUBCHEM_IUPAC_OPENEYE_NAME>
3-(2-naphthyl)-8-(2-phenylethyl)-1-oxa-8-azaspiro[4.5]dec-2-en-4-one;hydrochloride

> <PUBCHEM_IUPAC_CAS_NAME>
3-(2-naphthalenyl)-8-(2-phenylethyl)-1-oxa-8-azaspiro[4.5]dec-2-en-4-one;hydrochloride

> <PUBCHEM_IUPAC_NAME_MARKUP>
3-naphthalen-2-yl-8-(2-phenylethyl)-1-oxa-8-azaspiro[4.5]dec-2-en-4-one;hydrochloride

> <PUBCHEM_IUPAC_NAME>
3-naphthalen-2-yl-8-(2-phenylethyl)-1-oxa-8-azaspiro[4.5]dec-2-en-4-one;hydrochloride

> <PUBCHEM_IUPAC_SYSTEMATIC_NAME>
3-naphthalen-2-yl-8-(2-phenylethyl)-1-oxa-8-azaspiro[4.5]dec-2-en-4-one;hydrochloride

> <PUBCHEM_IUPAC_TRADITIONAL_NAME>
3-(2-naphthyl)-8-phenethyl-1-oxa-8-azaspiro[4.5]dec-2-en-4-one;hydrochloride

> <PUBCHEM_IUPAC_INCHI>
InChI=1S/C26H25NO2.ClH/c28-25-24(23-11-10-21-8-4-5-9-22(21)18-23)19-29-26(25)13-16-27(17-14-26)15-12-20-6-2-1-3-7-20;/h1-11,18-19H,12-17H2;1H

> <PUBCHEM_IUPAC_INCHIKEY>
SQLFLWKVIMIBPH-UHFFFAOYSA-N

> <PUBCHEM_EXACT_MASS>
419.1652068

> <PUBCHEM_MOLECULAR_FORMULA>
C26H26ClNO2

> <PUBCHEM_MOLECULAR_WEIGHT>
419.9

> <PUBCHEM_OPENEYE_CAN_SMILES>
C1CN(CCC12C(=O)C(=CO2)C3=CC4=CC=CC=C4C=C3)CCC5=CC=CC=C5.Cl

> <PUBCHEM_OPENEYE_ISO_SMILES>
C1CN(CCC12C(=O)C(=CO2)C3=CC4=CC=CC=C4C=C3)CCC5=CC=CC=C5.Cl

> <PUBCHEM_CACTVS_TPSA>
29.5

> <PUBCHEM_MONOISOTOPIC_WEIGHT>
419.1652068

> <PUBCHEM_TOTAL_CHARGE>
0

> <PUBCHEM_HEAVY_ATOM_COUNT>
30

> <PUBCHEM_ATOM_DEF_STEREO_COUNT>
0

> <PUBCHEM_ATOM_UDEF_STEREO_COUNT>
0

> <PUBCHEM_BOND_DEF_STEREO_COUNT>
0

> <PUBCHEM_BOND_UDEF_STEREO_COUNT>
0

> <PUBCHEM_ISOTOPIC_ATOM_COUNT>
0

> <PUBCHEM_COMPONENT_COUNT>
2

> <PUBCHEM_CACTVS_TAUTO_COUNT>
-1

> <PUBCHEM_COORDINATE_TYPE>
1
5
255

> <PUBCHEM_BONDANNOTATIONS>
15  17  8
15  18  8
16  20  8
16  21  8
17  19  8
18  22  8
19  23  8
19  24  8
20  25  8
21  26  8
22  23  8
23  27  8
24  29  8
25  28  8
26  28  8
27  30  8
29  30  8

$$$$
