44319269
  -OEChem-09292322202D

106111  0     0  0  0  0  0  0999 V2000
   14.4246   -2.7058    0.0000 O   0  0  0  0  0  0  0  0  0  0  0  0
    6.5000    2.7058    0.0000 O   0  0  0  0  0  0  0  0  0  0  0  0
    9.8410   -1.9010    0.0000 N   0  0  0  0  0  0  0  0  0  0  0  0
   11.0836    1.9010    0.0000 N   0  0  0  0  0  0  0  0  0  0  0  0
   17.4246   -4.4378    0.0000 N   0  0  0  0  0  0  0  0  0  0  0  0
    3.5000    4.4378    0.0000 N   0  0  0  0  0  0  0  0  0  0  0  0
    9.8410   -3.5105    0.0000 N   0  0  0  0  0  0  0  0  0  0  0  0
   11.0836    3.5105    0.0000 N   0  0  0  0  0  0  0  0  0  0  0  0
   16.4246   -4.4378    0.0000 C   0  0  0  0  0  0  0  0  0  0  0  0
    4.5000    4.4378    0.0000 C   0  0  0  0  0  0  0  0  0  0  0  0
   10.1516   -0.9505    0.0000 C   0  0  0  0  0  0  0  0  0  0  0  0
   10.7729    0.9505    0.0000 C   0  0  0  0  0  0  0  0  0  0  0  0
    8.8947   -2.2058    0.0000 C   0  0  0  0  0  0  0  0  0  0  0  0
   12.0298    2.2058    0.0000 C   0  0  0  0  0  0  0  0  0  0  0  0
   10.4246   -2.7058    0.0000 C   0  0  0  0  0  0  0  0  0  0  0  0
   10.5000    2.7058    0.0000 C   0  0  0  0  0  0  0  0  0  0  0  0
   15.9246   -3.5718    0.0000 C   0  0  0  0  0  0  0  0  0  0  0  0
    5.0000    3.5718    0.0000 C   0  0  0  0  0  0  0  0  0  0  0  0
    8.8947   -3.2058    0.0000 C   0  0  0  0  0  0  0  0  0  0  0  0
   12.0298    3.2058    0.0000 C   0  0  0  0  0  0  0  0  0  0  0  0
   17.9246   -5.3038    0.0000 C   0  0  0  0  0  0  0  0  0  0  0  0
   17.9246   -3.5718    0.0000 C   0  0  0  0  0  0  0  0  0  0  0  0
    3.0000    5.3038    0.0000 C   0  0  0  0  0  0  0  0  0  0  0  0
    3.0000    3.5718    0.0000 C   0  0  0  0  0  0  0  0  0  0  0  0
   11.4246   -2.7058    0.0000 C   0  0  0  0  0  0  0  0  0  0  0  0
    9.5000    2.7058    0.0000 C   0  0  0  0  0  0  0  0  0  0  0  0
    9.4838   -0.2062    0.0000 C   0  0  0  0  0  0  0  0  0  0  0  0
    9.7944    0.7443    0.0000 C   0  0  0  0  0  0  0  0  0  0  0  0
   14.9246   -3.5718    0.0000 C   0  0  0  0  0  0  0  0  0  0  0  0
    6.0000    3.5718    0.0000 C   0  0  0  0  0  0  0  0  0  0  0  0
    8.0287   -1.7058    0.0000 C   0  0  0  0  0  0  0  0  0  0  0  0
   12.8959    1.7058    0.0000 C   0  0  0  0  0  0  0  0  0  0  0  0
    8.0287   -3.7058    0.0000 C   0  0  0  0  0  0  0  0  0  0  0  0
   12.8959    3.7058    0.0000 C   0  0  0  0  0  0  0  0  0  0  0  0
   11.9246   -1.8398    0.0000 C   0  0  0  0  0  0  0  0  0  0  0  0
    9.0000    3.5718    0.0000 C   0  0  0  0  0  0  0  0  0  0  0  0
   11.9246   -3.5718    0.0000 C   0  0  0  0  0  0  0  0  0  0  0  0
    9.0000    1.8398    0.0000 C   0  0  0  0  0  0  0  0  0  0  0  0
   13.4246   -2.7058    0.0000 C   0  0  0  0  0  0  0  0  0  0  0  0
    7.5000    2.7058    0.0000 C   0  0  0  0  0  0  0  0  0  0  0  0
   18.9246   -5.3038    0.0000 C   0  0  0  0  0  0  0  0  0  0  0  0
   18.9246   -3.5718    0.0000 C   0  0  0  0  0  0  0  0  0  0  0  0
    2.0000    5.3038    0.0000 C   0  0  0  0  0  0  0  0  0  0  0  0
    2.0000    3.5718    0.0000 C   0  0  0  0  0  0  0  0  0  0  0  0
   12.9246   -1.8398    0.0000 C   0  0  0  0  0  0  0  0  0  0  0  0
    8.0000    3.5718    0.0000 C   0  0  0  0  0  0  0  0  0  0  0  0
   12.9246   -3.5718    0.0000 C   0  0  0  0  0  0  0  0  0  0  0  0
    8.0000    1.8398    0.0000 C   0  0  0  0  0  0  0  0  0  0  0  0
    7.1627   -2.2058    0.0000 C   0  0  0  0  0  0  0  0  0  0  0  0
   13.7619    2.2058    0.0000 C   0  0  0  0  0  0  0  0  0  0  0  0
    7.1627   -3.2058    0.0000 C   0  0  0  0  0  0  0  0  0  0  0  0
   13.7619    3.2058    0.0000 C   0  0  0  0  0  0  0  0  0  0  0  0
   15.8420   -4.6499    0.0000 H   0  0  0  0  0  0  0  0  0  0  0  0
   16.5322   -5.0484    0.0000 H   0  0  0  0  0  0  0  0  0  0  0  0
    5.0826    4.6499    0.0000 H   0  0  0  0  0  0  0  0  0  0  0  0
    4.3923    5.0484    0.0000 H   0  0  0  0  0  0  0  0  0  0  0  0
   10.6985   -1.2425    0.0000 H   0  0  0  0  0  0  0  0  0  0  0  0
   10.5342   -0.4626    0.0000 H   0  0  0  0  0  0  0  0  0  0  0  0
   10.7935    0.3309    0.0000 H   0  0  0  0  0  0  0  0  0  0  0  0
   11.3868    0.8632    0.0000 H   0  0  0  0  0  0  0  0  0  0  0  0
   16.5072   -3.3598    0.0000 H   0  0  0  0  0  0  0  0  0  0  0  0
   15.8169   -2.9612    0.0000 H   0  0  0  0  0  0  0  0  0  0  0  0
    4.4174    3.3598    0.0000 H   0  0  0  0  0  0  0  0  0  0  0  0
    5.1077    2.9612    0.0000 H   0  0  0  0  0  0  0  0  0  0  0  0
   17.3420   -5.5159    0.0000 H   0  0  0  0  0  0  0  0  0  0  0  0
   18.0322   -5.9144    0.0000 H   0  0  0  0  0  0  0  0  0  0  0  0
   18.0322   -2.9612    0.0000 H   0  0  0  0  0  0  0  0  0  0  0  0
   17.3420   -3.3598    0.0000 H   0  0  0  0  0  0  0  0  0  0  0  0
    3.5826    5.5159    0.0000 H   0  0  0  0  0  0  0  0  0  0  0  0
    2.8923    5.9144    0.0000 H   0  0  0  0  0  0  0  0  0  0  0  0
    2.8923    2.9612    0.0000 H   0  0  0  0  0  0  0  0  0  0  0  0
    3.5826    3.3598    0.0000 H   0  0  0  0  0  0  0  0  0  0  0  0
    8.8771   -0.3341    0.0000 H   0  0  0  0  0  0  0  0  0  0  0  0
    9.3804    1.2058    0.0000 H   0  0  0  0  0  0  0  0  0  0  0  0
   14.3420   -3.7838    0.0000 H   0  0  0  0  0  0  0  0  0  0  0  0
   15.0322   -4.1824    0.0000 H   0  0  0  0  0  0  0  0  0  0  0  0
    6.5826    3.7838    0.0000 H   0  0  0  0  0  0  0  0  0  0  0  0
    5.8923    4.1824    0.0000 H   0  0  0  0  0  0  0  0  0  0  0  0
    8.0287   -1.0858    0.0000 H   0  0  0  0  0  0  0  0  0  0  0  0
   12.8959    1.0858    0.0000 H   0  0  0  0  0  0  0  0  0  0  0  0
    8.0287   -4.3258    0.0000 H   0  0  0  0  0  0  0  0  0  0  0  0
   12.8959    4.3258    0.0000 H   0  0  0  0  0  0  0  0  0  0  0  0
   11.6146   -1.3028    0.0000 H   0  0  0  0  0  0  0  0  0  0  0  0
    9.3100    4.1087    0.0000 H   0  0  0  0  0  0  0  0  0  0  0  0
   11.6146   -4.1087    0.0000 H   0  0  0  0  0  0  0  0  0  0  0  0
    9.3100    1.3028    0.0000 H   0  0  0  0  0  0  0  0  0  0  0  0
   18.9246   -5.9238    0.0000 H   0  0  0  0  0  0  0  0  0  0  0  0
   19.5446   -5.3038    0.0000 H   0  0  0  0  0  0  0  0  0  0  0  0
   18.9246   -4.6838    0.0000 H   0  0  0  0  0  0  0  0  0  0  0  0
   18.9246   -4.1918    0.0000 H   0  0  0  0  0  0  0  0  0  0  0  0
   19.5446   -3.5718    0.0000 H   0  0  0  0  0  0  0  0  0  0  0  0
   18.9246   -2.9518    0.0000 H   0  0  0  0  0  0  0  0  0  0  0  0
    2.0000    5.9238    0.0000 H   0  0  0  0  0  0  0  0  0  0  0  0
    1.3800    5.3038    0.0000 H   0  0  0  0  0  0  0  0  0  0  0  0
    2.0000    4.6838    0.0000 H   0  0  0  0  0  0  0  0  0  0  0  0
    2.0000    4.1918    0.0000 H   0  0  0  0  0  0  0  0  0  0  0  0
    1.3800    3.5718    0.0000 H   0  0  0  0  0  0  0  0  0  0  0  0
    2.0000    2.9518    0.0000 H   0  0  0  0  0  0  0  0  0  0  0  0
   13.2346   -1.3028    0.0000 H   0  0  0  0  0  0  0  0  0  0  0  0
    7.6900    4.1087    0.0000 H   0  0  0  0  0  0  0  0  0  0  0  0
   13.2346   -4.1087    0.0000 H   0  0  0  0  0  0  0  0  0  0  0  0
    7.6900    1.3028    0.0000 H   0  0  0  0  0  0  0  0  0  0  0  0
    6.6258   -1.8958    0.0000 H   0  0  0  0  0  0  0  0  0  0  0  0
   14.2988    1.8958    0.0000 H   0  0  0  0  0  0  0  0  0  0  0  0
    6.6258   -3.5158    0.0000 H   0  0  0  0  0  0  0  0  0  0  0  0
   14.2988    3.5158    0.0000 H   0  0  0  0  0  0  0  0  0  0  0  0
  1 29  1  0  0  0  0
  1 39  1  0  0  0  0
  2 30  1  0  0  0  0
  2 40  1  0  0  0  0
  3 11  1  0  0  0  0
  3 13  1  0  0  0  0
  3 15  1  0  0  0  0
  4 12  1  0  0  0  0
  4 14  1  0  0  0  0
  4 16  1  0  0  0  0
  5  9  1  0  0  0  0
  5 21  1  0  0  0  0
  5 22  1  0  0  0  0
  6 10  1  0  0  0  0
  6 23  1  0  0  0  0
  6 24  1  0  0  0  0
  7 15  2  0  0  0  0
  7 19  1  0  0  0  0
  8 16  2  0  0  0  0
  8 20  1  0  0  0  0
  9 17  1  0  0  0  0
  9 53  1  0  0  0  0
  9 54  1  0  0  0  0
 10 18  1  0  0  0  0
 10 55  1  0  0  0  0
 10 56  1  0  0  0  0
 11 27  1  0  0  0  0
 11 57  1  0  0  0  0
 11 58  1  0  0  0  0
 12 28  1  0  0  0  0
 12 59  1  0  0  0  0
 12 60  1  0  0  0  0
 13 19  1  0  0  0  0
 13 31  2  0  0  0  0
 14 20  1  0  0  0  0
 14 32  2  0  0  0  0
 15 25  1  0  0  0  0
 16 26  1  0  0  0  0
 17 29  1  0  0  0  0
 17 61  1  0  0  0  0
 17 62  1  0  0  0  0
 18 30  1  0  0  0  0
 18 63  1  0  0  0  0
 18 64  1  0  0  0  0
 19 33  2  0  0  0  0
 20 34  2  0  0  0  0
 21 41  1  0  0  0  0
 21 65  1  0  0  0  0
 21 66  1  0  0  0  0
 22 42  1  0  0  0  0
 22 67  1  0  0  0  0
 22 68  1  0  0  0  0
 23 43  1  0  0  0  0
 23 69  1  0  0  0  0
 23 70  1  0  0  0  0
 24 44  1  0  0  0  0
 24 71  1  0  0  0  0
 24 72  1  0  0  0  0
 25 35  2  0  0  0  0
 25 37  1  0  0  0  0
 26 36  2  0  0  0  0
 26 38  1  0  0  0  0
 27 28  2  0  0  0  0
 27 73  1  0  0  0  0
 28 74  1  0  0  0  0
 29 75  1  0  0  0  0
 29 76  1  0  0  0  0
 30 77  1  0  0  0  0
 30 78  1  0  0  0  0
 31 49  1  0  0  0  0
 31 79  1  0  0  0  0
 32 50  1  0  0  0  0
 32 80  1  0  0  0  0
 33 51  1  0  0  0  0
 33 81  1  0  0  0  0
 34 52  1  0  0  0  0
 34 82  1  0  0  0  0
 35 45  1  0  0  0  0
 35 83  1  0  0  0  0
 36 46  1  0  0  0  0
 36 84  1  0  0  0  0
 37 47  2  0  0  0  0
 37 85  1  0  0  0  0
 38 48  2  0  0  0  0
 38 86  1  0  0  0  0
 39 45  2  0  0  0  0
 39 47  1  0  0  0  0
 40 46  2  0  0  0  0
 40 48  1  0  0  0  0
 41 87  1  0  0  0  0
 41 88  1  0  0  0  0
 41 89  1  0  0  0  0
 42 90  1  0  0  0  0
 42 91  1  0  0  0  0
 42 92  1  0  0  0  0
 43 93  1  0  0  0  0
 43 94  1  0  0  0  0
 43 95  1  0  0  0  0
 44 96  1  0  0  0  0
 44 97  1  0  0  0  0
 44 98  1  0  0  0  0
 45 99  1  0  0  0  0
 46100  1  0  0  0  0
 47101  1  0  0  0  0
 48102  1  0  0  0  0
 49 51  2  0  0  0  0
 49103  1  0  0  0  0
 50 52  2  0  0  0  0
 50104  1  0  0  0  0
 51105  1  0  0  0  0
 52106  1  0  0  0  0
M  END
> <PUBCHEM_COMPOUND_CID>
44319269

> <PUBCHEM_COMPOUND_CANONICALIZED>
1

> <PUBCHEM_CACTVS_COMPLEXITY>
929

> <PUBCHEM_CACTVS_HBOND_ACCEPTOR>
6

> <PUBCHEM_CACTVS_HBOND_DONOR>
0

> <PUBCHEM_CACTVS_ROTATABLE_BOND>
20

> <PUBCHEM_CACTVS_SUBSKEYS>
AAADcfB/sAAAAAAAAAAAAAAAAAAAAWLAAAAwYMGAAAAAAFgB/gAAHgAAAAAADAzhnwYz1rcMFACgAyZiZACCiC0hMqAJ2CA+fJiMbqLEuZuWOCjuwBPI6CeQ0AIOIAAAAAAAACBAAAAAAAAAQAAAAAAAAA==

> <PUBCHEM_IUPAC_OPENEYE_NAME>
3-[4-[1-[(Z)-4-[2-[4-[3-(diethylamino)propoxy]phenyl]benzimidazol-1-yl]but-2-enyl]benzimidazol-2-yl]phenoxy]-N,N-diethyl-propan-1-amine

> <PUBCHEM_IUPAC_CAS_NAME>
3-[4-[1-[(Z)-4-[2-[4-[3-(diethylamino)propoxy]phenyl]-1-benzimidazolyl]but-2-enyl]-2-benzimidazolyl]phenoxy]-N,N-diethyl-1-propanamine

> <PUBCHEM_IUPAC_NAME_MARKUP>
3-[4-[1-[(<I>Z</I>)-4-[2-[4-[3-(diethylamino)propoxy]phenyl]benzimidazol-1-yl]but-2-enyl]benzimidazol-2-yl]phenoxy]-<I>N</I>,<I>N</I>-diethylpropan-1-amine

> <PUBCHEM_IUPAC_NAME>
3-[4-[1-[(Z)-4-[2-[4-[3-(diethylamino)propoxy]phenyl]benzimidazol-1-yl]but-2-enyl]benzimidazol-2-yl]phenoxy]-N,N-diethylpropan-1-amine

> <PUBCHEM_IUPAC_SYSTEMATIC_NAME>
3-[4-[1-[(Z)-4-[2-[4-[3-(diethylamino)propoxy]phenyl]benzimidazol-1-yl]but-2-enyl]benzimidazol-2-yl]phenoxy]-N,N-diethyl-propan-1-amine

> <PUBCHEM_IUPAC_TRADITIONAL_NAME>
3-[4-[1-[(Z)-4-[2-[4-[3-(diethylamino)propoxy]phenyl]benzimidazol-1-yl]but-2-enyl]benzimidazol-2-yl]phenoxy]propyl-diethyl-amine

> <PUBCHEM_IUPAC_INCHI>
InChI=1S/C44H54N6O2/c1-5-47(6-2)29-15-33-51-37-25-21-35(22-26-37)43-45-39-17-9-11-19-41(39)49(43)31-13-14-32-50-42-20-12-10-18-40(42)46-44(50)36-23-27-38(28-24-36)52-34-16-30-48(7-3)8-4/h9-14,17-28H,5-8,15-16,29-34H2,1-4H3/b14-13-

> <PUBCHEM_IUPAC_INCHIKEY>
VZCQCONTEBWWMW-YPKPFQOOSA-N

> <PUBCHEM_XLOGP3_AA>
8.7

> <PUBCHEM_EXACT_MASS>
698.43082499

> <PUBCHEM_MOLECULAR_FORMULA>
C44H54N6O2

> <PUBCHEM_MOLECULAR_WEIGHT>
698.9

> <PUBCHEM_OPENEYE_CAN_SMILES>
CCN(CC)CCCOC1=CC=C(C=C1)C2=NC3=CC=CC=C3N2CC=CCN4C5=CC=CC=C5N=C4C6=CC=C(C=C6)OCCCN(CC)CC

> <PUBCHEM_OPENEYE_ISO_SMILES>
CCN(CC)CCCOC1=CC=C(C=C1)C2=NC3=CC=CC=C3N2C/C=C\CN4C5=CC=CC=C5N=C4C6=CC=C(C=C6)OCCCN(CC)CC

> <PUBCHEM_CACTVS_TPSA>
60.6

> <PUBCHEM_MONOISOTOPIC_WEIGHT>
698.43082499

> <PUBCHEM_TOTAL_CHARGE>
0

> <PUBCHEM_HEAVY_ATOM_COUNT>
52

> <PUBCHEM_ATOM_DEF_STEREO_COUNT>
0

> <PUBCHEM_ATOM_UDEF_STEREO_COUNT>
0

> <PUBCHEM_BOND_DEF_STEREO_COUNT>
1

> <PUBCHEM_BOND_UDEF_STEREO_COUNT>
0

> <PUBCHEM_ISOTOPIC_ATOM_COUNT>
0

> <PUBCHEM_COMPONENT_COUNT>
1

> <PUBCHEM_CACTVS_TAUTO_COUNT>
-1

> <PUBCHEM_COORDINATE_TYPE>
1
5
255

> <PUBCHEM_BONDANNOTATIONS>
13  19  8
13  31  8
14  20  8
14  32  8
19  33  8
20  34  8
25  35  8
25  37  8
26  36  8
26  38  8
3  13  8
3  15  8
31  49  8
32  50  8
33  51  8
34  52  8
35  45  8
36  46  8
37  47  8
38  48  8
39  45  8
39  47  8
4  14  8
4  16  8
40  46  8
40  48  8
49  51  8
50  52  8
7  15  8
7  19  8
8  16  8
8  20  8

$$$$
