44454318
  -OEChem-09292322242D

 58 62  0     1  0  0  0  0  0999 V2000
    7.1382    3.0864    0.0000 S   0  0  0  0  0  0  0  0  0  0  0  0
   13.3985   -4.6742    0.0000 F   0  0  0  0  0  0  0  0  0  0  0  0
   14.2927   -3.5785    0.0000 F   0  0  0  0  0  0  0  0  0  0  0  0
   12.3029   -3.7799    0.0000 F   0  0  0  0  0  0  0  0  0  0  0  0
    3.3090    2.1353    0.0000 O   0  0  0  0  0  0  0  0  0  0  0  0
    9.4561    0.5120    0.0000 N   0  0  3  0  0  0  0  0  0  0  0  0
   12.1560   -1.2158    0.0000 N   0  0  0  0  0  0  0  0  0  0  0  0
   12.6560    0.3230    0.0000 N   0  0  0  0  0  0  0  0  0  0  0  0
    5.3781    2.8076    0.0000 N   0  0  0  0  0  0  0  0  0  0  0  0
    5.8781    4.3464    0.0000 N   0  0  0  0  0  0  0  0  0  0  0  0
    4.8781    4.3464    0.0000 N   0  0  0  0  0  0  0  0  0  0  0  0
    2.0000    3.0864    0.0000 N   0  0  0  0  0  0  0  0  0  0  0  0
    9.5865   -0.4601    0.0000 C   0  0  0  0  0  0  0  0  0  0  0  0
   10.4264   -0.9665    0.0000 C   0  0  0  0  0  0  0  0  0  0  0  0
   10.1330    1.2219    0.0000 C   0  0  0  0  0  0  0  0  0  0  0  0
   11.3469   -0.6281    0.0000 C   0  0  0  0  0  0  0  0  0  0  0  0
   11.1101    1.1379    0.0000 C   0  0  0  0  0  0  0  0  0  0  0  0
   11.6560    0.3230    0.0000 C   0  0  0  0  0  0  0  0  0  0  0  0
    8.5051    0.8211    0.0000 C   0  0  0  0  0  0  0  0  0  0  0  0
   12.9650   -0.6281    0.0000 C   0  0  0  0  0  0  0  0  0  0  0  0
    8.2972    1.7992    0.0000 C   0  0  0  0  0  0  0  0  0  0  0  0
   12.2489   -2.2533    0.0000 C   0  0  0  0  0  0  0  0  0  0  0  0
    7.3461    2.1082    0.0000 C   0  0  0  0  0  0  0  0  0  0  0  0
   13.9230   -1.0370    0.0000 C   0  0  0  0  0  0  0  0  0  0  0  0
   13.1971   -2.6843    0.0000 C   0  0  0  0  0  0  0  0  0  0  0  0
   14.0398   -2.0721    0.0000 C   0  0  0  0  0  0  0  0  0  0  0  0
   13.2978   -3.6792    0.0000 C   0  0  0  0  0  0  0  0  0  0  0  0
    6.1871    3.3954    0.0000 C   0  0  0  0  0  0  0  0  0  0  0  0
    4.5691    3.3954    0.0000 C   0  0  0  0  0  0  0  0  0  0  0  0
    5.3781    1.8076    0.0000 C   0  0  0  0  0  0  0  0  0  0  0  0
    3.6180    3.0864    0.0000 C   0  0  0  0  0  0  0  0  0  0  0  0
    2.8090    3.6742    0.0000 C   0  0  0  0  0  0  0  0  0  0  0  0
    2.8090    4.6742    0.0000 C   0  0  0  0  0  0  0  0  0  0  0  0
    2.3090    2.1353    0.0000 C   0  0  0  0  0  0  0  0  0  0  0  0
    8.9691   -0.4031    0.0000 H   0  0  0  0  0  0  0  0  0  0  0  0
    9.3930   -1.0491    0.0000 H   0  0  0  0  0  0  0  0  0  0  0  0
   10.3227    1.8121    0.0000 H   0  0  0  0  0  0  0  0  0  0  0  0
    9.6000    1.5387    0.0000 H   0  0  0  0  0  0  0  0  0  0  0  0
    9.9957   -1.4125    0.0000 H   0  0  0  0  0  0  0  0  0  0  0  0
   10.7649   -1.4859    0.0000 H   0  0  0  0  0  0  0  0  0  0  0  0
   11.6893    1.3591    0.0000 H   0  0  0  0  0  0  0  0  0  0  0  0
   11.0239    1.7519    0.0000 H   0  0  0  0  0  0  0  0  0  0  0  0
    7.8854    0.7994    0.0000 H   0  0  0  0  0  0  0  0  0  0  0  0
    8.4188    0.2071    0.0000 H   0  0  0  0  0  0  0  0  0  0  0  0
    8.9168    1.8208    0.0000 H   0  0  0  0  0  0  0  0  0  0  0  0
    8.3834    2.4132    0.0000 H   0  0  0  0  0  0  0  0  0  0  0  0
   11.7431   -2.6119    0.0000 H   0  0  0  0  0  0  0  0  0  0  0  0
    6.7265    2.0866    0.0000 H   0  0  0  0  0  0  0  0  0  0  0  0
    7.2598    1.4942    0.0000 H   0  0  0  0  0  0  0  0  0  0  0  0
   14.4203   -0.6668    0.0000 H   0  0  0  0  0  0  0  0  0  0  0  0
   14.6072   -2.3220    0.0000 H   0  0  0  0  0  0  0  0  0  0  0  0
    4.7581    1.8076    0.0000 H   0  0  0  0  0  0  0  0  0  0  0  0
    5.3781    1.1876    0.0000 H   0  0  0  0  0  0  0  0  0  0  0  0
    5.9981    1.8076    0.0000 H   0  0  0  0  0  0  0  0  0  0  0  0
    3.4290    4.6742    0.0000 H   0  0  0  0  0  0  0  0  0  0  0  0
    2.8090    5.2942    0.0000 H   0  0  0  0  0  0  0  0  0  0  0  0
    2.1890    4.6742    0.0000 H   0  0  0  0  0  0  0  0  0  0  0  0
    1.9446    1.6337    0.0000 H   0  0  0  0  0  0  0  0  0  0  0  0
  1 23  1  0  0  0  0
  1 28  1  0  0  0  0
  2 27  1  0  0  0  0
  3 27  1  0  0  0  0
  4 27  1  0  0  0  0
  5 31  1  0  0  0  0
  5 34  1  0  0  0  0
  6 13  1  0  0  0  0
  6 15  1  0  0  0  0
  6 19  1  0  0  0  0
  7 16  1  0  0  0  0
  7 20  1  0  0  0  0
  7 22  1  0  0  0  0
  8 18  1  0  0  0  0
  8 20  2  0  0  0  0
  9 28  1  0  0  0  0
  9 29  1  0  0  0  0
  9 30  1  0  0  0  0
 10 11  1  0  0  0  0
 10 28  2  0  0  0  0
 11 29  2  0  0  0  0
 12 32  1  0  0  0  0
 12 34  2  0  0  0  0
 13 14  1  0  0  0  0
 13 35  1  0  0  0  0
 13 36  1  0  0  0  0
 14 16  1  0  0  0  0
 14 39  1  0  0  0  0
 14 40  1  0  0  0  0
 15 17  1  0  0  0  0
 15 37  1  0  0  0  0
 15 38  1  0  0  0  0
 16 18  2  0  0  0  0
 17 18  1  0  0  0  0
 17 41  1  0  0  0  0
 17 42  1  0  0  0  0
 19 21  1  0  0  0  0
 19 43  1  0  0  0  0
 19 44  1  0  0  0  0
 20 24  1  0  0  0  0
 21 23  1  0  0  0  0
 21 45  1  0  0  0  0
 21 46  1  0  0  0  0
 22 25  2  0  0  0  0
 22 47  1  0  0  0  0
 23 48  1  0  0  0  0
 23 49  1  0  0  0  0
 24 26  2  0  0  0  0
 24 50  1  0  0  0  0
 25 26  1  0  0  0  0
 25 27  1  0  0  0  0
 26 51  1  0  0  0  0
 29 31  1  0  0  0  0
 30 52  1  0  0  0  0
 30 53  1  0  0  0  0
 30 54  1  0  0  0  0
 31 32  2  0  0  0  0
 32 33  1  0  0  0  0
 33 55  1  0  0  0  0
 33 56  1  0  0  0  0
 33 57  1  0  0  0  0
 34 58  1  0  0  0  0
M  END
> <PUBCHEM_COMPOUND_CID>
44454318

> <PUBCHEM_COMPOUND_CANONICALIZED>
1

> <PUBCHEM_CACTVS_COMPLEXITY>
691

> <PUBCHEM_CACTVS_HBOND_ACCEPTOR>
10

> <PUBCHEM_CACTVS_HBOND_DONOR>
0

> <PUBCHEM_CACTVS_ROTATABLE_BOND>
6

> <PUBCHEM_CACTVS_SUBSKEYS>
AAADceB7oYBAAAAAAAAAAAAAAAAAAWLFgAAsAAAABYAAAFix/gAAHwQIAAAADAzF3xa/tJ8MHEiqA7Z39ASS2C97crAd2CG9dJiOaOLk2bGdIChojALYyCcQAAAMAAAAAAAAAAAAAAAAAAAAAAAAAAAAAA==

> <PUBCHEM_IUPAC_OPENEYE_NAME>
4-methyl-5-[4-methyl-5-[3-[4-(trifluoromethyl)-2,8,12-triazatricyclo[7.5.0.02,7]tetradeca-1(9),3,5,7-tetraen-12-yl]propylsulfanyl]-1,2,4-triazol-3-yl]oxazole

> <PUBCHEM_IUPAC_CAS_NAME>
4-methyl-5-[4-methyl-5-[3-[4-(trifluoromethyl)-2,8,12-triazatricyclo[7.5.0.02,7]tetradeca-1(9),3,5,7-tetraen-12-yl]propylthio]-1,2,4-triazol-3-yl]oxazole

> <PUBCHEM_IUPAC_NAME_MARKUP>
4-methyl-5-[4-methyl-5-[3-[4-(trifluoromethyl)-2,8,12-triazatricyclo[7.5.0.0<SUP>2,7</SUP>]tetradeca-1(9),3,5,7-tetraen-12-yl]propylsulfanyl]-1,2,4-triazol-3-yl]-1,3-oxazole

> <PUBCHEM_IUPAC_NAME>
4-methyl-5-[4-methyl-5-[3-[4-(trifluoromethyl)-2,8,12-triazatricyclo[7.5.0.02,7]tetradeca-1(9),3,5,7-tetraen-12-yl]propylsulfanyl]-1,2,4-triazol-3-yl]-1,3-oxazole

> <PUBCHEM_IUPAC_SYSTEMATIC_NAME>
4-methyl-5-[4-methyl-5-[3-[4-(trifluoromethyl)-2,8,12-triazatricyclo[7.5.0.02,7]tetradeca-1(9),3,5,7-tetraen-12-yl]propylsulfanyl]-1,2,4-triazol-3-yl]-1,3-oxazole

> <PUBCHEM_IUPAC_TRADITIONAL_NAME>
4-methyl-5-[4-methyl-5-[3-[4-(trifluoromethyl)-2,8,12-triazatricyclo[7.5.0.02,7]tetradeca-1(9),3,5,7-tetraen-12-yl]propylthio]-1,2,4-triazol-3-yl]oxazole

> <PUBCHEM_IUPAC_INCHI>
InChI=1S/C22H24F3N7OS/c1-14-19(33-13-26-14)20-28-29-21(30(20)2)34-11-3-8-31-9-6-16-17(7-10-31)32-12-15(22(23,24)25)4-5-18(32)27-16/h4-5,12-13H,3,6-11H2,1-2H3

> <PUBCHEM_IUPAC_INCHIKEY>
WKIHYCMRGGUMCH-UHFFFAOYSA-N

> <PUBCHEM_XLOGP3_AA>
4

> <PUBCHEM_EXACT_MASS>
491.17151407

> <PUBCHEM_MOLECULAR_FORMULA>
C22H24F3N7OS

> <PUBCHEM_MOLECULAR_WEIGHT>
491.5

> <PUBCHEM_OPENEYE_CAN_SMILES>
CC1=C(OC=N1)C2=NN=C(N2C)SCCCN3CCC4=C(CC3)N5C=C(C=CC5=N4)C(F)(F)F

> <PUBCHEM_OPENEYE_ISO_SMILES>
CC1=C(OC=N1)C2=NN=C(N2C)SCCCN3CCC4=C(CC3)N5C=C(C=CC5=N4)C(F)(F)F

> <PUBCHEM_CACTVS_TPSA>
103

> <PUBCHEM_MONOISOTOPIC_WEIGHT>
491.17151407

> <PUBCHEM_TOTAL_CHARGE>
0

> <PUBCHEM_HEAVY_ATOM_COUNT>
34

> <PUBCHEM_ATOM_DEF_STEREO_COUNT>
0

> <PUBCHEM_ATOM_UDEF_STEREO_COUNT>
0

> <PUBCHEM_BOND_DEF_STEREO_COUNT>
0

> <PUBCHEM_BOND_UDEF_STEREO_COUNT>
0

> <PUBCHEM_ISOTOPIC_ATOM_COUNT>
0

> <PUBCHEM_COMPONENT_COUNT>
1

> <PUBCHEM_CACTVS_TAUTO_COUNT>
-1

> <PUBCHEM_COORDINATE_TYPE>
1
5
255

> <PUBCHEM_BONDANNOTATIONS>
10  11  8
10  28  8
11  29  8
12  32  8
12  34  8
16  18  8
20  24  8
22  25  8
24  26  8
25  26  8
31  32  8
5  31  8
5  34  8
7  16  8
7  20  8
7  22  8
8  18  8
8  20  8
9  28  8
9  29  8

$$$$
