15665503
  -OEChem-09292322142D

 63 68  0     1  0  0  0  0  0999 V2000
    9.7212    4.0108    0.0000 O   0  0  0  0  0  0  0  0  0  0  0  0
    6.8798   -0.6881    0.0000 O   0  0  0  0  0  0  0  0  0  0  0  0
    8.6719   -1.7227    0.0000 O   0  0  0  0  0  0  0  0  0  0  0  0
    3.0000   -1.8636    0.0000 O   0  0  0  0  0  0  0  0  0  0  0  0
    3.0000   -3.5956    0.0000 O   0  0  0  0  0  0  0  0  0  0  0  0
   11.2814    1.9465    0.0000 N   0  0  3  0  0  0  0  0  0  0  0  0
    8.6381    1.3430    0.0000 N   0  0  0  0  0  0  0  0  0  0  0  0
   11.4443    3.5563    0.0000 N   0  0  0  0  0  0  0  0  0  0  0  0
    5.0836   -3.5343    0.0000 N   0  0  0  0  0  0  0  0  0  0  0  0
   10.3663    2.3497    0.0000 C   0  0  0  0  0  0  0  0  0  0  0  0
   10.3701    1.3497    0.0000 C   0  0  0  0  0  0  0  0  0  0  0  0
    9.4983    2.8463    0.0000 C   0  0  0  0  0  0  0  0  0  0  0  0
    9.5060    0.8463    0.0000 C   0  0  0  0  0  0  0  0  0  0  0  0
    8.6342    2.3430    0.0000 C   0  0  0  0  0  0  0  0  0  0  0  0
   10.4669    3.3446    0.0000 C   0  0  0  0  0  0  0  0  0  0  0  0
   11.9476    2.6922    0.0000 C   0  0  0  0  0  0  0  0  0  0  0  0
    7.7740    0.8397    0.0000 C   0  0  0  0  0  0  0  0  0  0  0  0
   11.4930    0.9691    0.0000 C   0  0  0  0  0  0  0  0  0  0  0  0
    7.7778   -0.1603    0.0000 C   0  0  3  0  0  0  0  0  0  0  0  0
    8.6799   -0.6811    0.0000 C   0  0  0  0  0  0  0  0  0  0  0  0
   12.4453    0.6638    0.0000 C   0  0  0  0  0  0  0  0  0  0  0  0
   10.7525    0.2971    0.0000 C   0  0  0  0  0  0  0  0  0  0  0  0
    6.8958   -1.7296    0.0000 C   0  0  0  0  0  0  0  0  0  0  0  0
    7.7619   -2.2296    0.0000 C   0  0  0  0  0  0  0  0  0  0  0  0
   12.6570   -0.3136    0.0000 C   0  0  0  0  0  0  0  0  0  0  0  0
   10.9642   -0.6802    0.0000 C   0  0  0  0  0  0  0  0  0  0  0  0
    6.0298   -2.2296    0.0000 C   0  0  0  0  0  0  0  0  0  0  0  0
   11.9164   -0.9856    0.0000 C   0  0  0  0  0  0  0  0  0  0  0  0
    6.0298   -3.2296    0.0000 C   0  0  0  0  0  0  0  0  0  0  0  0
    7.7619   -3.2296    0.0000 C   0  0  0  0  0  0  0  0  0  0  0  0
    6.8958   -3.7296    0.0000 C   0  0  0  0  0  0  0  0  0  0  0  0
    5.0836   -1.9248    0.0000 C   0  0  0  0  0  0  0  0  0  0  0  0
    4.5000   -2.7296    0.0000 C   0  0  0  0  0  0  0  0  0  0  0  0
    3.5000   -2.7296    0.0000 C   0  0  0  0  0  0  0  0  0  0  0  0
    2.0000   -1.8636    0.0000 C   0  0  0  0  0  0  0  0  0  0  0  0
   10.5844    0.7679    0.0000 H   0  0  0  0  0  0  0  0  0  0  0  0
   10.9803    1.4597    0.0000 H   0  0  0  0  0  0  0  0  0  0  0  0
    9.8950    3.3228    0.0000 H   0  0  0  0  0  0  0  0  0  0  0  0
    9.0980    3.3197    0.0000 H   0  0  0  0  0  0  0  0  0  0  0  0
    9.1093    0.3699    0.0000 H   0  0  0  0  0  0  0  0  0  0  0  0
    9.9064    0.3729    0.0000 H   0  0  0  0  0  0  0  0  0  0  0  0
    8.4199    2.9248    0.0000 H   0  0  0  0  0  0  0  0  0  0  0  0
    8.0241    2.2330    0.0000 H   0  0  0  0  0  0  0  0  0  0  0  0
   12.3643    2.2330    0.0000 H   0  0  0  0  0  0  0  0  0  0  0  0
   12.4478    3.0585    0.0000 H   0  0  0  0  0  0  0  0  0  0  0  0
    7.5597    1.4215    0.0000 H   0  0  0  0  0  0  0  0  0  0  0  0
    7.1638    0.7297    0.0000 H   0  0  0  0  0  0  0  0  0  0  0  0
   11.6943    4.1236    0.0000 H   0  0  0  0  0  0  0  0  0  0  0  0
    7.2391    0.1466    0.0000 H   0  0  0  0  0  0  0  0  0  0  0  0
    9.2899   -0.7919    0.0000 H   0  0  0  0  0  0  0  0  0  0  0  0
    8.8935   -0.0991    0.0000 H   0  0  0  0  0  0  0  0  0  0  0  0
   12.9044    1.0804    0.0000 H   0  0  0  0  0  0  0  0  0  0  0  0
   10.1621    0.4864    0.0000 H   0  0  0  0  0  0  0  0  0  0  0  0
   13.2473   -0.5029    0.0000 H   0  0  0  0  0  0  0  0  0  0  0  0
   10.5050   -1.0968    0.0000 H   0  0  0  0  0  0  0  0  0  0  0  0
   12.0476   -1.5915    0.0000 H   0  0  0  0  0  0  0  0  0  0  0  0
    8.2988   -3.5396    0.0000 H   0  0  0  0  0  0  0  0  0  0  0  0
    6.8958   -4.3496    0.0000 H   0  0  0  0  0  0  0  0  0  0  0  0
    4.8910   -1.3355    0.0000 H   0  0  0  0  0  0  0  0  0  0  0  0
    4.8910   -4.1236    0.0000 H   0  0  0  0  0  0  0  0  0  0  0  0
    2.0000   -1.2436    0.0000 H   0  0  0  0  0  0  0  0  0  0  0  0
    1.3800   -1.8636    0.0000 H   0  0  0  0  0  0  0  0  0  0  0  0
    2.0000   -2.4836    0.0000 H   0  0  0  0  0  0  0  0  0  0  0  0
  1 15  2  0  0  0  0
  2 19  1  0  0  0  0
  2 23  1  0  0  0  0
  3 20  1  0  0  0  0
  3 24  1  0  0  0  0
  4 34  1  0  0  0  0
  4 35  1  0  0  0  0
  5 34  2  0  0  0  0
  6 10  1  0  0  0  0
  6 16  1  0  0  0  0
  6 18  1  0  0  0  0
  7 13  1  0  0  0  0
  7 14  1  0  0  0  0
  7 17  1  0  0  0  0
  8 15  1  0  0  0  0
  8 16  1  0  0  0  0
  8 48  1  0  0  0  0
  9 29  1  0  0  0  0
  9 33  1  0  0  0  0
  9 60  1  0  0  0  0
 10 11  1  0  0  0  0
 10 12  1  0  0  0  0
 10 15  1  0  0  0  0
 11 13  1  0  0  0  0
 11 36  1  0  0  0  0
 11 37  1  0  0  0  0
 12 14  1  0  0  0  0
 12 38  1  0  0  0  0
 12 39  1  0  0  0  0
 13 40  1  0  0  0  0
 13 41  1  0  0  0  0
 14 42  1  0  0  0  0
 14 43  1  0  0  0  0
 16 44  1  0  0  0  0
 16 45  1  0  0  0  0
 17 19  1  0  0  0  0
 17 46  1  0  0  0  0
 17 47  1  0  0  0  0
 18 21  2  0  0  0  0
 18 22  1  0  0  0  0
 19 20  1  0  0  0  0
 19 49  1  0  0  0  0
 20 50  1  0  0  0  0
 20 51  1  0  0  0  0
 21 25  1  0  0  0  0
 21 52  1  0  0  0  0
 22 26  2  0  0  0  0
 22 53  1  0  0  0  0
 23 24  2  0  0  0  0
 23 27  1  0  0  0  0
 24 30  1  0  0  0  0
 25 28  2  0  0  0  0
 25 54  1  0  0  0  0
 26 28  1  0  0  0  0
 26 55  1  0  0  0  0
 27 29  2  0  0  0  0
 27 32  1  0  0  0  0
 28 56  1  0  0  0  0
 29 31  1  0  0  0  0
 30 31  2  0  0  0  0
 30 57  1  0  0  0  0
 31 58  1  0  0  0  0
 32 33  2  0  0  0  0
 32 59  1  0  0  0  0
 33 34  1  0  0  0  0
 35 61  1  0  0  0  0
 35 62  1  0  0  0  0
 35 63  1  0  0  0  0
M  END
> <PUBCHEM_COMPOUND_CID>
15665503

> <PUBCHEM_COMPOUND_CANONICALIZED>
1

> <PUBCHEM_CACTVS_COMPLEXITY>
797

> <PUBCHEM_CACTVS_HBOND_ACCEPTOR>
7

> <PUBCHEM_CACTVS_HBOND_DONOR>
2

> <PUBCHEM_CACTVS_ROTATABLE_BOND>
5

> <PUBCHEM_CACTVS_SUBSKEYS>
AAADceB7uAAAAAAAAAAAAAAAAAAAAWLAAAA8aIEAAAAAAFiR9AAAHgAQAAAADJzhngYzzvPJlACoAyXyXASCiCAnIiAImaG+7NiPZvLE9buXOSru0xva6ae8/b/eAEABAgAKQAAAgAIEABSAAAAAAAAAAA==

> <PUBCHEM_IUPAC_OPENEYE_NAME>
methyl 2-[(4-oxo-1-phenyl-1,3,8-triazaspiro[4.5]decan-8-yl)methyl]-3,7-dihydro-2H-[1,4]dioxino[2,3-e]indole-8-carboxylate

> <PUBCHEM_IUPAC_CAS_NAME>
2-[(4-oxo-1-phenyl-1,3,8-triazaspiro[4.5]decan-8-yl)methyl]-3,7-dihydro-2H-[1,4]dioxino[2,3-e]indole-8-carboxylic acid methyl ester

> <PUBCHEM_IUPAC_NAME_MARKUP>
methyl 2-[(4-oxo-1-phenyl-1,3,8-triazaspiro[4.5]decan-8-yl)methyl]-3,7-dihydro-2<I>H</I>-[1,4]dioxino[2,3-e]indole-8-carboxylate

> <PUBCHEM_IUPAC_NAME>
methyl 2-[(4-oxo-1-phenyl-1,3,8-triazaspiro[4.5]decan-8-yl)methyl]-3,7-dihydro-2H-[1,4]dioxino[2,3-e]indole-8-carboxylate

> <PUBCHEM_IUPAC_SYSTEMATIC_NAME>
methyl 2-[(4-oxidanylidene-1-phenyl-1,3,8-triazaspiro[4.5]decan-8-yl)methyl]-3,7-dihydro-2H-[1,4]dioxino[2,3-e]indole-8-carboxylate

> <PUBCHEM_IUPAC_TRADITIONAL_NAME>
2-[(4-keto-1-phenyl-1,3,8-triazaspiro[4.5]decan-8-yl)methyl]-3,7-dihydro-2H-[1,4]dioxin[2,3-e]indole-8-carboxylic acid methyl ester

> <PUBCHEM_IUPAC_INCHI>
InChI=1S/C26H28N4O5/c1-33-24(31)21-13-19-20(28-21)7-8-22-23(19)35-18(15-34-22)14-29-11-9-26(10-12-29)25(32)27-16-30(26)17-5-3-2-4-6-17/h2-8,13,18,28H,9-12,14-16H2,1H3,(H,27,32)

> <PUBCHEM_IUPAC_INCHIKEY>
HSOIWCPMXCWYHB-UHFFFAOYSA-N

> <PUBCHEM_XLOGP3_AA>
3.4

> <PUBCHEM_EXACT_MASS>
476.20597001

> <PUBCHEM_MOLECULAR_FORMULA>
C26H28N4O5

> <PUBCHEM_MOLECULAR_WEIGHT>
476.5

> <PUBCHEM_OPENEYE_CAN_SMILES>
COC(=O)C1=CC2=C(N1)C=CC3=C2OC(CO3)CN4CCC5(CC4)C(=O)NCN5C6=CC=CC=C6

> <PUBCHEM_OPENEYE_ISO_SMILES>
COC(=O)C1=CC2=C(N1)C=CC3=C2OC(CO3)CN4CCC5(CC4)C(=O)NCN5C6=CC=CC=C6

> <PUBCHEM_CACTVS_TPSA>
96.1

> <PUBCHEM_MONOISOTOPIC_WEIGHT>
476.20597001

> <PUBCHEM_TOTAL_CHARGE>
0

> <PUBCHEM_HEAVY_ATOM_COUNT>
35

> <PUBCHEM_ATOM_DEF_STEREO_COUNT>
0

> <PUBCHEM_ATOM_UDEF_STEREO_COUNT>
1

> <PUBCHEM_BOND_DEF_STEREO_COUNT>
0

> <PUBCHEM_BOND_UDEF_STEREO_COUNT>
0

> <PUBCHEM_ISOTOPIC_ATOM_COUNT>
0

> <PUBCHEM_COMPONENT_COUNT>
1

> <PUBCHEM_CACTVS_TAUTO_COUNT>
-1

> <PUBCHEM_COORDINATE_TYPE>
1
5
255

> <PUBCHEM_BONDANNOTATIONS>
19  17  3
18  21  8
18  22  8
21  25  8
22  26  8
23  24  8
23  27  8
24  30  8
25  28  8
26  28  8
27  29  8
27  32  8
29  31  8
30  31  8
32  33  8
9  29  8
9  33  8

$$$$
