23653176
  -OEChem-09292322252D

 53 56  0     0  0  0  0  0  0999 V2000
    9.4312   -5.3859    0.0000 Cl  0  0  0  0  0  0  0  0  0  0  0  0
    6.2619    4.3859    0.0000 O   0  0  0  0  0  0  0  0  0  0  0  0
    7.5673    0.3172    0.0000 N   0  0  0  0  0  0  0  0  0  0  0  0
    8.1886   -1.5838    0.0000 N   0  0  0  0  0  0  0  0  0  0  0  0
    4.6783    3.5812    0.0000 N   0  0  0  0  0  0  0  0  0  0  0  0
    8.5458    0.1110    0.0000 C   0  0  0  0  0  0  0  0  0  0  0  0
    6.8994   -0.4271    0.0000 C   0  0  0  0  0  0  0  0  0  0  0  0
    7.2566    1.2677    0.0000 C   0  0  0  0  0  0  0  0  0  0  0  0
    8.8564   -0.8395    0.0000 C   0  0  0  0  0  0  0  0  0  0  0  0
    7.2101   -1.3776    0.0000 C   0  0  0  0  0  0  0  0  0  0  0  0
    6.2781    1.4739    0.0000 C   0  0  0  0  0  0  0  0  0  0  0  0
    5.9674    2.4245    0.0000 C   0  0  0  0  0  0  0  0  0  0  0  0
    4.9889    2.6307    0.0000 C   0  0  0  0  0  0  0  0  0  0  0  0
    8.4993   -2.5344    0.0000 C   0  0  0  0  0  0  0  0  0  0  0  0
    3.7320    3.8859    0.0000 C   0  0  0  0  0  0  0  0  0  0  0  0
    3.7320    4.8859    0.0000 C   0  0  0  0  0  0  0  0  0  0  0  0
    4.6783    5.1907    0.0000 C   0  0  0  0  0  0  0  0  0  0  0  0
    5.2619    4.3859    0.0000 C   0  0  0  0  0  0  0  0  0  0  0  0
    9.4778   -2.7406    0.0000 C   0  0  0  0  0  0  0  0  0  0  0  0
    7.8314   -3.2787    0.0000 C   0  0  0  0  0  0  0  0  0  0  0  0
    2.8660    3.3859    0.0000 C   0  0  0  0  0  0  0  0  0  0  0  0
    2.8660    5.3859    0.0000 C   0  0  0  0  0  0  0  0  0  0  0  0
    2.0000    3.8859    0.0000 C   0  0  0  0  0  0  0  0  0  0  0  0
    2.0000    4.8859    0.0000 C   0  0  0  0  0  0  0  0  0  0  0  0
    9.7884   -3.6911    0.0000 C   0  0  0  0  0  0  0  0  0  0  0  0
    8.1421   -4.2292    0.0000 C   0  0  0  0  0  0  0  0  0  0  0  0
    9.1206   -4.4354    0.0000 C   0  0  0  0  0  0  0  0  0  0  0  0
    9.1596    0.1983    0.0000 H   0  0  0  0  0  0  0  0  0  0  0  0
    8.5663    0.7306    0.0000 H   0  0  0  0  0  0  0  0  0  0  0  0
    6.5169    0.0608    0.0000 H   0  0  0  0  0  0  0  0  0  0  0  0
    6.3525   -0.7191    0.0000 H   0  0  0  0  0  0  0  0  0  0  0  0
    7.8704    1.3551    0.0000 H   0  0  0  0  0  0  0  0  0  0  0  0
    7.2772    1.8874    0.0000 H   0  0  0  0  0  0  0  0  0  0  0  0
    9.2390   -1.3274    0.0000 H   0  0  0  0  0  0  0  0  0  0  0  0
    9.4034   -0.5475    0.0000 H   0  0  0  0  0  0  0  0  0  0  0  0
    6.5963   -1.4650    0.0000 H   0  0  0  0  0  0  0  0  0  0  0  0
    7.1895   -1.9973    0.0000 H   0  0  0  0  0  0  0  0  0  0  0  0
    5.6643    1.3866    0.0000 H   0  0  0  0  0  0  0  0  0  0  0  0
    6.2575    0.8543    0.0000 H   0  0  0  0  0  0  0  0  0  0  0  0
    6.5812    2.5118    0.0000 H   0  0  0  0  0  0  0  0  0  0  0  0
    5.9880    3.0441    0.0000 H   0  0  0  0  0  0  0  0  0  0  0  0
    4.3751    2.5433    0.0000 H   0  0  0  0  0  0  0  0  0  0  0  0
    4.9684    2.0110    0.0000 H   0  0  0  0  0  0  0  0  0  0  0  0
    5.2156    5.4999    0.0000 H   0  0  0  0  0  0  0  0  0  0  0  0
    4.4272    5.7576    0.0000 H   0  0  0  0  0  0  0  0  0  0  0  0
    9.8918   -2.2791    0.0000 H   0  0  0  0  0  0  0  0  0  0  0  0
    7.2247   -3.1508    0.0000 H   0  0  0  0  0  0  0  0  0  0  0  0
    2.8660    2.7659    0.0000 H   0  0  0  0  0  0  0  0  0  0  0  0
    2.8660    6.0059    0.0000 H   0  0  0  0  0  0  0  0  0  0  0  0
    1.4631    3.5759    0.0000 H   0  0  0  0  0  0  0  0  0  0  0  0
    1.4631    5.1959    0.0000 H   0  0  0  0  0  0  0  0  0  0  0  0
   10.3951   -3.8190    0.0000 H   0  0  0  0  0  0  0  0  0  0  0  0
    7.7280   -4.6906    0.0000 H   0  0  0  0  0  0  0  0  0  0  0  0
  1 27  1  0  0  0  0
  2 18  2  0  0  0  0
  3  6  1  0  0  0  0
  3  7  1  0  0  0  0
  3  8  1  0  0  0  0
  4  9  1  0  0  0  0
  4 10  1  0  0  0  0
  4 14  1  0  0  0  0
  5 13  1  0  0  0  0
  5 15  1  0  0  0  0
  5 18  1  0  0  0  0
  6  9  1  0  0  0  0
  6 28  1  0  0  0  0
  6 29  1  0  0  0  0
  7 10  1  0  0  0  0
  7 30  1  0  0  0  0
  7 31  1  0  0  0  0
  8 11  1  0  0  0  0
  8 32  1  0  0  0  0
  8 33  1  0  0  0  0
  9 34  1  0  0  0  0
  9 35  1  0  0  0  0
 10 36  1  0  0  0  0
 10 37  1  0  0  0  0
 11 12  1  0  0  0  0
 11 38  1  0  0  0  0
 11 39  1  0  0  0  0
 12 13  1  0  0  0  0
 12 40  1  0  0  0  0
 12 41  1  0  0  0  0
 13 42  1  0  0  0  0
 13 43  1  0  0  0  0
 14 19  2  0  0  0  0
 14 20  1  0  0  0  0
 15 16  1  0  0  0  0
 15 21  2  0  0  0  0
 16 17  1  0  0  0  0
 16 22  2  0  0  0  0
 17 18  1  0  0  0  0
 17 44  1  0  0  0  0
 17 45  1  0  0  0  0
 19 25  1  0  0  0  0
 19 46  1  0  0  0  0
 20 26  2  0  0  0  0
 20 47  1  0  0  0  0
 21 23  1  0  0  0  0
 21 48  1  0  0  0  0
 22 24  1  0  0  0  0
 22 49  1  0  0  0  0
 23 24  2  0  0  0  0
 23 50  1  0  0  0  0
 24 51  1  0  0  0  0
 25 27  2  0  0  0  0
 25 52  1  0  0  0  0
 26 27  1  0  0  0  0
 26 53  1  0  0  0  0
M  END
> <PUBCHEM_COMPOUND_CID>
23653176

> <PUBCHEM_COMPOUND_CANONICALIZED>
1

> <PUBCHEM_CACTVS_COMPLEXITY>
486

> <PUBCHEM_CACTVS_HBOND_ACCEPTOR>
3

> <PUBCHEM_CACTVS_HBOND_DONOR>
0

> <PUBCHEM_CACTVS_ROTATABLE_BOND>
6

> <PUBCHEM_CACTVS_SUBSKEYS>
AAADceB7IAAEAAAAAAAAAAAAAAAAAWAAAAA8YIAAAAAAAFgBQAAAHgIAAAAADArBmCQwwIMAAACIAiVSUACCAAAhBwAIiAEIZogIYDLBl5GUIAhghgDIyAcciICOAABAAAACAAAAAIAAAAQAAAAAAAAAAA==

> <PUBCHEM_IUPAC_OPENEYE_NAME>
1-[4-[4-(4-chlorophenyl)piperazin-1-yl]butyl]indolin-2-one

> <PUBCHEM_IUPAC_CAS_NAME>
1-[4-[4-(4-chlorophenyl)-1-piperazinyl]butyl]-3H-indol-2-one

> <PUBCHEM_IUPAC_NAME_MARKUP>
1-[4-[4-(4-chlorophenyl)piperazin-1-yl]butyl]-3<I>H</I>-indol-2-one

> <PUBCHEM_IUPAC_NAME>
1-[4-[4-(4-chlorophenyl)piperazin-1-yl]butyl]-3H-indol-2-one

> <PUBCHEM_IUPAC_SYSTEMATIC_NAME>
1-[4-[4-(4-chlorophenyl)piperazin-1-yl]butyl]-3H-indol-2-one

> <PUBCHEM_IUPAC_TRADITIONAL_NAME>
1-[4-[4-(4-chlorophenyl)piperazino]butyl]oxindole

> <PUBCHEM_IUPAC_INCHI>
InChI=1S/C22H26ClN3O/c23-19-7-9-20(10-8-19)25-15-13-24(14-16-25)11-3-4-12-26-21-6-2-1-5-18(21)17-22(26)27/h1-2,5-10H,3-4,11-17H2

> <PUBCHEM_IUPAC_INCHIKEY>
AEVXOGLKVVRZCX-UHFFFAOYSA-N

> <PUBCHEM_XLOGP3_AA>
3.9

> <PUBCHEM_EXACT_MASS>
383.1764402

> <PUBCHEM_MOLECULAR_FORMULA>
C22H26ClN3O

> <PUBCHEM_MOLECULAR_WEIGHT>
383.9

> <PUBCHEM_OPENEYE_CAN_SMILES>
C1CN(CCN1CCCCN2C(=O)CC3=CC=CC=C32)C4=CC=C(C=C4)Cl

> <PUBCHEM_OPENEYE_ISO_SMILES>
C1CN(CCN1CCCCN2C(=O)CC3=CC=CC=C32)C4=CC=C(C=C4)Cl

> <PUBCHEM_CACTVS_TPSA>
26.8

> <PUBCHEM_MONOISOTOPIC_WEIGHT>
383.1764402

> <PUBCHEM_TOTAL_CHARGE>
0

> <PUBCHEM_HEAVY_ATOM_COUNT>
27

> <PUBCHEM_ATOM_DEF_STEREO_COUNT>
0

> <PUBCHEM_ATOM_UDEF_STEREO_COUNT>
0

> <PUBCHEM_BOND_DEF_STEREO_COUNT>
0

> <PUBCHEM_BOND_UDEF_STEREO_COUNT>
0

> <PUBCHEM_ISOTOPIC_ATOM_COUNT>
0

> <PUBCHEM_COMPONENT_COUNT>
1

> <PUBCHEM_CACTVS_TAUTO_COUNT>
-1

> <PUBCHEM_COORDINATE_TYPE>
1
5
255

> <PUBCHEM_BONDANNOTATIONS>
14  19  8
14  20  8
15  16  8
15  21  8
16  22  8
19  25  8
20  26  8
21  23  8
22  24  8
23  24  8
25  27  8
26  27  8

$$$$
