10466962
  -OEChem-09292322122D

 39 41  0     1  0  0  0  0  0999 V2000
    8.0483    0.6682    0.0000 O   0  0  0  0  0  0  0  0  0  0  0  0
    3.5998   -0.6334    0.0000 N   0  0  3  0  0  0  0  0  0  0  0  0
    4.5460   -0.3286    0.0000 C   0  0  1  0  0  0  0  0  0  0  0  0
    4.5460    0.6714    0.0000 C   0  0  1  0  0  0  0  0  0  0  0  0
    3.5998    0.9761    0.0000 C   0  0  0  0  0  0  0  0  0  0  0  0
    5.4121   -0.8286    0.0000 C   0  0  0  0  0  0  0  0  0  0  0  0
    3.0162    0.1714    0.0000 C   0  0  0  0  0  0  0  0  0  0  0  0
    5.4121    1.1714    0.0000 C   0  0  0  0  0  0  0  0  0  0  0  0
    6.2781   -0.3286    0.0000 C   0  0  0  0  0  0  0  0  0  0  0  0
    6.2781    0.6714    0.0000 C   0  0  0  0  0  0  0  0  0  0  0  0
    3.2892   -1.5839    0.0000 C   0  0  0  0  0  0  0  0  0  0  0  0
    5.3960    2.2129    0.0000 C   0  0  0  0  0  0  0  0  0  0  0  0
    7.1881    1.1782    0.0000 C   0  0  0  0  0  0  0  0  0  0  0  0
    6.2941    2.7406    0.0000 C   0  0  0  0  0  0  0  0  0  0  0  0
    2.3107   -1.7901    0.0000 C   0  0  0  0  0  0  0  0  0  0  0  0
    7.1961    2.2198    0.0000 C   0  0  0  0  0  0  0  0  0  0  0  0
    2.0000   -2.7406    0.0000 C   0  0  0  0  0  0  0  0  0  0  0  0
    8.9200    1.1582    0.0000 C   0  0  0  0  0  0  0  0  0  0  0  0
    4.4561   -1.1739    0.0000 H   0  0  0  0  0  0  0  0  0  0  0  0
    4.4561    1.5166    0.0000 H   0  0  0  0  0  0  0  0  0  0  0  0
    3.8509    1.5430    0.0000 H   0  0  0  0  0  0  0  0  0  0  0  0
    3.0624    1.2853    0.0000 H   0  0  0  0  0  0  0  0  0  0  0  0
    5.0136   -1.3036    0.0000 H   0  0  0  0  0  0  0  0  0  0  0  0
    5.8106   -1.3036    0.0000 H   0  0  0  0  0  0  0  0  0  0  0  0
    2.5553    0.5861    0.0000 H   0  0  0  0  0  0  0  0  0  0  0  0
    2.5553   -0.2434    0.0000 H   0  0  0  0  0  0  0  0  0  0  0  0
    6.4902   -0.9112    0.0000 H   0  0  0  0  0  0  0  0  0  0  0  0
    6.8887   -0.2210    0.0000 H   0  0  0  0  0  0  0  0  0  0  0  0
    3.3097   -2.2036    0.0000 H   0  0  0  0  0  0  0  0  0  0  0  0
    3.9030   -1.6712    0.0000 H   0  0  0  0  0  0  0  0  0  0  0  0
    4.8555    2.5166    0.0000 H   0  0  0  0  0  0  0  0  0  0  0  0
    6.2917    3.3606    0.0000 H   0  0  0  0  0  0  0  0  0  0  0  0
    1.8966   -1.3286    0.0000 H   0  0  0  0  0  0  0  0  0  0  0  0
    7.7343    2.5277    0.0000 H   0  0  0  0  0  0  0  0  0  0  0  0
    1.3933   -2.8685    0.0000 H   0  0  0  0  0  0  0  0  0  0  0  0
    2.4141   -3.2021    0.0000 H   0  0  0  0  0  0  0  0  0  0  0  0
    9.2238    0.6177    0.0000 H   0  0  0  0  0  0  0  0  0  0  0  0
    9.4605    1.4620    0.0000 H   0  0  0  0  0  0  0  0  0  0  0  0
    8.6163    1.6987    0.0000 H   0  0  0  0  0  0  0  0  0  0  0  0
  1 13  1  0  0  0  0
  1 18  1  0  0  0  0
  2  3  1  0  0  0  0
  2  7  1  0  0  0  0
  2 11  1  0  0  0  0
  3  4  1  0  0  0  0
  3  6  1  0  0  0  0
  3 19  1  6  0  0  0
  4  5  1  0  0  0  0
  4  8  1  0  0  0  0
  4 20  1  6  0  0  0
  5  7  1  0  0  0  0
  5 21  1  0  0  0  0
  5 22  1  0  0  0  0
  6  9  1  0  0  0  0
  6 23  1  0  0  0  0
  6 24  1  0  0  0  0
  7 25  1  0  0  0  0
  7 26  1  0  0  0  0
  8 10  2  0  0  0  0
  8 12  1  0  0  0  0
  9 10  1  0  0  0  0
  9 27  1  0  0  0  0
  9 28  1  0  0  0  0
 10 13  1  0  0  0  0
 11 15  1  0  0  0  0
 11 29  1  0  0  0  0
 11 30  1  0  0  0  0
 12 14  2  0  0  0  0
 12 31  1  0  0  0  0
 13 16  2  0  0  0  0
 14 16  1  0  0  0  0
 14 32  1  0  0  0  0
 15 17  2  0  0  0  0
 15 33  1  0  0  0  0
 16 34  1  0  0  0  0
 17 35  1  0  0  0  0
 17 36  1  0  0  0  0
 18 37  1  0  0  0  0
 18 38  1  0  0  0  0
 18 39  1  0  0  0  0
M  END
> <PUBCHEM_COMPOUND_CID>
10466962

> <PUBCHEM_COMPOUND_CANONICALIZED>
1

> <PUBCHEM_CACTVS_COMPLEXITY>
304

> <PUBCHEM_CACTVS_HBOND_ACCEPTOR>
2

> <PUBCHEM_CACTVS_HBOND_DONOR>
0

> <PUBCHEM_CACTVS_ROTATABLE_BOND>
3

> <PUBCHEM_CACTVS_SUBSKEYS>
AAADceB6IAAAAAAAAAAAAAAAAAAAAWAAAAAwYAAAAAAAAFjBAAAAHgAAAAAADSzBmAYyBoMABACAAiBCAACCCAAgIAAIiAAOCIgMJiKEsRuEMCAkwBGIqAeQ0PMOgAABAAAYAAAQAAaAADQAAAAAAAAAAA==

> <PUBCHEM_IUPAC_OPENEYE_NAME>
(3aR,9bS)-3-allyl-6-methoxy-1,2,3a,4,5,9b-hexahydrobenzo[e]indole

> <PUBCHEM_IUPAC_CAS_NAME>
(3aR,9bS)-6-methoxy-3-prop-2-enyl-1,2,3a,4,5,9b-hexahydrobenzo[e]indole

> <PUBCHEM_IUPAC_NAME_MARKUP>
(3<I>a</I><I>R</I>,9<I>b</I><I>S</I>)-6-methoxy-3-prop-2-enyl-1,2,3<I>a</I>,4,5,9<I>b</I>-hexahydrobenzo[e]indole

> <PUBCHEM_IUPAC_NAME>
(3aR,9bS)-6-methoxy-3-prop-2-enyl-1,2,3a,4,5,9b-hexahydrobenzo[e]indole

> <PUBCHEM_IUPAC_SYSTEMATIC_NAME>
(3aR,9bS)-6-methoxy-3-prop-2-enyl-1,2,3a,4,5,9b-hexahydrobenzo[e]indole

> <PUBCHEM_IUPAC_TRADITIONAL_NAME>
(3aR,9bS)-3-allyl-6-methoxy-1,2,3a,4,5,9b-hexahydrobenz[e]indole

> <PUBCHEM_IUPAC_INCHI>
InChI=1S/C16H21NO/c1-3-10-17-11-9-13-12-5-4-6-16(18-2)14(12)7-8-15(13)17/h3-6,13,15H,1,7-11H2,2H3/t13-,15+/m0/s1

> <PUBCHEM_IUPAC_INCHIKEY>
ZRAGXRIXRXDXCR-DZGCQCFKSA-N

> <PUBCHEM_XLOGP3_AA>
3.2

> <PUBCHEM_EXACT_MASS>
243.162314293

> <PUBCHEM_MOLECULAR_FORMULA>
C16H21NO

> <PUBCHEM_MOLECULAR_WEIGHT>
243.34

> <PUBCHEM_OPENEYE_CAN_SMILES>
COC1=CC=CC2=C1CCC3C2CCN3CC=C

> <PUBCHEM_OPENEYE_ISO_SMILES>
COC1=CC=CC2=C1CC[C@@H]3[C@H]2CCN3CC=C

> <PUBCHEM_CACTVS_TPSA>
12.5

> <PUBCHEM_MONOISOTOPIC_WEIGHT>
243.162314293

> <PUBCHEM_TOTAL_CHARGE>
0

> <PUBCHEM_HEAVY_ATOM_COUNT>
18

> <PUBCHEM_ATOM_DEF_STEREO_COUNT>
2

> <PUBCHEM_ATOM_UDEF_STEREO_COUNT>
0

> <PUBCHEM_BOND_DEF_STEREO_COUNT>
0

> <PUBCHEM_BOND_UDEF_STEREO_COUNT>
0

> <PUBCHEM_ISOTOPIC_ATOM_COUNT>
0

> <PUBCHEM_COMPONENT_COUNT>
1

> <PUBCHEM_CACTVS_TAUTO_COUNT>
-1

> <PUBCHEM_COORDINATE_TYPE>
1
5
255

> <PUBCHEM_BONDANNOTATIONS>
10  13  8
12  14  8
13  16  8
14  16  8
3  19  6
4  20  6
8  10  8
8  12  8

$$$$
