45482152
  -OEChem-09292322292D

 60 63  0     0  0  0  0  0  0999 V2000
    2.0000   -6.0942    0.0000 Cl  0  0  0  0  0  0  0  0  0  0  0  0
    2.0000   -8.0942    0.0000 Cl  0  0  0  0  0  0  0  0  0  0  0  0
    7.1962    0.9058    0.0000 O   0  0  0  0  0  0  0  0  0  0  0  0
    3.8857    8.0942    0.0000 O   0  5  0  0  0  0  0  0  0  0  0  0
    2.4845    7.0762    0.0000 O   0  0  0  0  0  0  0  0  0  0  0  0
    3.7320   -3.0942    0.0000 N   0  0  0  0  0  0  0  0  0  0  0  0
    3.7320   -5.0942    0.0000 N   0  0  0  0  0  0  0  0  0  0  0  0
    5.4641    0.9058    0.0000 N   0  0  0  0  0  0  0  0  0  0  0  0
    5.8301    3.9446    0.0000 N   0  0  0  0  0  0  0  0  0  0  0  0
    7.1391    2.9936    0.0000 N   0  0  0  0  0  0  0  0  0  0  0  0
    6.8301    3.9446    0.0000 N   0  0  0  0  0  0  0  0  0  0  0  0
    3.4790    7.1807    0.0000 N   0  3  0  0  0  0  0  0  0  0  0  0
    4.5981   -3.5942    0.0000 C   0  0  0  0  0  0  0  0  0  0  0  0
    2.8660   -3.5942    0.0000 C   0  0  0  0  0  0  0  0  0  0  0  0
    4.5981   -4.5942    0.0000 C   0  0  0  0  0  0  0  0  0  0  0  0
    2.8660   -4.5942    0.0000 C   0  0  0  0  0  0  0  0  0  0  0  0
    3.7320   -2.0942    0.0000 C   0  0  0  0  0  0  0  0  0  0  0  0
    4.5981   -1.5942    0.0000 C   0  0  0  0  0  0  0  0  0  0  0  0
    3.7320   -6.0942    0.0000 C   0  0  0  0  0  0  0  0  0  0  0  0
    4.5981   -0.5942    0.0000 C   0  0  0  0  0  0  0  0  0  0  0  0
    5.4641   -0.0942    0.0000 C   0  0  0  0  0  0  0  0  0  0  0  0
    2.8660   -6.5942    0.0000 C   0  0  0  0  0  0  0  0  0  0  0  0
    4.5981   -6.5942    0.0000 C   0  0  0  0  0  0  0  0  0  0  0  0
    2.8660   -7.5942    0.0000 C   0  0  0  0  0  0  0  0  0  0  0  0
    4.5981   -7.5942    0.0000 C   0  0  0  0  0  0  0  0  0  0  0  0
    3.7320   -8.0942    0.0000 C   0  0  0  0  0  0  0  0  0  0  0  0
    6.3301    1.4058    0.0000 C   0  0  0  0  0  0  0  0  0  0  0  0
    6.3301    2.4058    0.0000 C   0  0  0  0  0  0  0  0  0  0  0  0
    5.5211    2.9936    0.0000 C   0  0  0  0  0  0  0  0  0  0  0  0
    5.2423    4.7536    0.0000 C   0  0  0  0  0  0  0  0  0  0  0  0
    5.6491    5.6672    0.0000 C   0  0  0  0  0  0  0  0  0  0  0  0
    4.2478    4.6491    0.0000 C   0  0  0  0  0  0  0  0  0  0  0  0
    5.0613    6.4762    0.0000 C   0  0  0  0  0  0  0  0  0  0  0  0
    3.6600    5.4581    0.0000 C   0  0  0  0  0  0  0  0  0  0  0  0
    4.0668    6.3717    0.0000 C   0  0  0  0  0  0  0  0  0  0  0  0
    5.2087   -3.7019    0.0000 H   0  0  0  0  0  0  0  0  0  0  0  0
    4.8101   -3.0116    0.0000 H   0  0  0  0  0  0  0  0  0  0  0  0
    2.6540   -3.0116    0.0000 H   0  0  0  0  0  0  0  0  0  0  0  0
    2.2554   -3.7019    0.0000 H   0  0  0  0  0  0  0  0  0  0  0  0
    4.8101   -5.1768    0.0000 H   0  0  0  0  0  0  0  0  0  0  0  0
    5.2087   -4.4866    0.0000 H   0  0  0  0  0  0  0  0  0  0  0  0
    2.2554   -4.4866    0.0000 H   0  0  0  0  0  0  0  0  0  0  0  0
    2.6540   -5.1768    0.0000 H   0  0  0  0  0  0  0  0  0  0  0  0
    3.5200   -1.5116    0.0000 H   0  0  0  0  0  0  0  0  0  0  0  0
    3.1215   -2.2019    0.0000 H   0  0  0  0  0  0  0  0  0  0  0  0
    4.8101   -2.1768    0.0000 H   0  0  0  0  0  0  0  0  0  0  0  0
    5.2087   -1.4866    0.0000 H   0  0  0  0  0  0  0  0  0  0  0  0
    4.3860   -0.0116    0.0000 H   0  0  0  0  0  0  0  0  0  0  0  0
    3.9875   -0.7019    0.0000 H   0  0  0  0  0  0  0  0  0  0  0  0
    5.6762   -0.6768    0.0000 H   0  0  0  0  0  0  0  0  0  0  0  0
    6.0747    0.0134    0.0000 H   0  0  0  0  0  0  0  0  0  0  0  0
    5.1350   -6.2842    0.0000 H   0  0  0  0  0  0  0  0  0  0  0  0
    4.9272    1.2158    0.0000 H   0  0  0  0  0  0  0  0  0  0  0  0
    5.1350   -7.9042    0.0000 H   0  0  0  0  0  0  0  0  0  0  0  0
    3.7320   -8.7142    0.0000 H   0  0  0  0  0  0  0  0  0  0  0  0
    4.9315    2.8020    0.0000 H   0  0  0  0  0  0  0  0  0  0  0  0
    6.2657    5.7320    0.0000 H   0  0  0  0  0  0  0  0  0  0  0  0
    3.9956    4.0827    0.0000 H   0  0  0  0  0  0  0  0  0  0  0  0
    5.3135    7.0426    0.0000 H   0  0  0  0  0  0  0  0  0  0  0  0
    3.0434    5.3933    0.0000 H   0  0  0  0  0  0  0  0  0  0  0  0
  1 22  1  0  0  0  0
  2 24  1  0  0  0  0
  3 27  2  0  0  0  0
  4 12  1  0  0  0  0
  5 12  2  0  0  0  0
  6 13  1  0  0  0  0
  6 14  1  0  0  0  0
  6 17  1  0  0  0  0
  7 15  1  0  0  0  0
  7 16  1  0  0  0  0
  7 19  1  0  0  0  0
  8 21  1  0  0  0  0
  8 27  1  0  0  0  0
  8 53  1  0  0  0  0
  9 11  1  0  0  0  0
  9 29  1  0  0  0  0
  9 30  1  0  0  0  0
 10 11  2  0  0  0  0
 10 28  1  0  0  0  0
 12 35  1  0  0  0  0
 13 15  1  0  0  0  0
 13 36  1  0  0  0  0
 13 37  1  0  0  0  0
 14 16  1  0  0  0  0
 14 38  1  0  0  0  0
 14 39  1  0  0  0  0
 15 40  1  0  0  0  0
 15 41  1  0  0  0  0
 16 42  1  0  0  0  0
 16 43  1  0  0  0  0
 17 18  1  0  0  0  0
 17 44  1  0  0  0  0
 17 45  1  0  0  0  0
 18 20  1  0  0  0  0
 18 46  1  0  0  0  0
 18 47  1  0  0  0  0
 19 22  2  0  0  0  0
 19 23  1  0  0  0  0
 20 21  1  0  0  0  0
 20 48  1  0  0  0  0
 20 49  1  0  0  0  0
 21 50  1  0  0  0  0
 21 51  1  0  0  0  0
 22 24  1  0  0  0  0
 23 25  2  0  0  0  0
 23 52  1  0  0  0  0
 24 26  2  0  0  0  0
 25 26  1  0  0  0  0
 25 54  1  0  0  0  0
 26 55  1  0  0  0  0
 27 28  1  0  0  0  0
 28 29  2  0  0  0  0
 29 56  1  0  0  0  0
 30 31  2  0  0  0  0
 30 32  1  0  0  0  0
 31 33  1  0  0  0  0
 31 57  1  0  0  0  0
 32 34  2  0  0  0  0
 32 58  1  0  0  0  0
 33 35  2  0  0  0  0
 33 59  1  0  0  0  0
 34 35  1  0  0  0  0
 34 60  1  0  0  0  0
M  CHG  2   4  -1  12   1
M  END
> <PUBCHEM_COMPOUND_CID>
45482152

> <PUBCHEM_COMPOUND_CANONICALIZED>
1

> <PUBCHEM_CACTVS_COMPLEXITY>
699

> <PUBCHEM_CACTVS_HBOND_ACCEPTOR>
7

> <PUBCHEM_CACTVS_HBOND_DONOR>
1

> <PUBCHEM_CACTVS_ROTATABLE_BOND>
8

> <PUBCHEM_CACTVS_SUBSKEYS>
AAADceB7sAAGAAAAAAAAAAAAAAAAAWAAAAA8YIAAAAAAAAAB0AAAHgIcAAAACArBliQ8wJPYQACrATV3VwCCBCQ3lwA4msG4dsoIYGrB05HUIIhglgDIyMcQAAAAAACAAAIAABQAAQAABAAAKAAAAAAAAA==

> <PUBCHEM_IUPAC_OPENEYE_NAME>
N-[4-[4-(2,3-dichlorophenyl)piperazin-1-yl]butyl]-1-(4-nitrophenyl)triazole-4-carboxamide

> <PUBCHEM_IUPAC_CAS_NAME>
N-[4-[4-(2,3-dichlorophenyl)-1-piperazinyl]butyl]-1-(4-nitrophenyl)-4-triazolecarboxamide

> <PUBCHEM_IUPAC_NAME_MARKUP>
<I>N</I>-[4-[4-(2,3-dichlorophenyl)piperazin-1-yl]butyl]-1-(4-nitrophenyl)triazole-4-carboxamide

> <PUBCHEM_IUPAC_NAME>
N-[4-[4-(2,3-dichlorophenyl)piperazin-1-yl]butyl]-1-(4-nitrophenyl)triazole-4-carboxamide

> <PUBCHEM_IUPAC_SYSTEMATIC_NAME>
N-[4-[4-[2,3-bis(chloranyl)phenyl]piperazin-1-yl]butyl]-1-(4-nitrophenyl)-1,2,3-triazole-4-carboxamide

> <PUBCHEM_IUPAC_TRADITIONAL_NAME>
N-[4-[4-(2,3-dichlorophenyl)piperazino]butyl]-1-(4-nitrophenyl)triazole-4-carboxamide

> <PUBCHEM_IUPAC_INCHI>
InChI=1S/C23H25Cl2N7O3/c24-19-4-3-5-21(22(19)25)30-14-12-29(13-15-30)11-2-1-10-26-23(33)20-16-31(28-27-20)17-6-8-18(9-7-17)32(34)35/h3-9,16H,1-2,10-15H2,(H,26,33)

> <PUBCHEM_IUPAC_INCHIKEY>
FFDHLEGSHFJYQA-UHFFFAOYSA-N

> <PUBCHEM_XLOGP3_AA>
4.4

> <PUBCHEM_EXACT_MASS>
517.1395931

> <PUBCHEM_MOLECULAR_FORMULA>
C23H25Cl2N7O3

> <PUBCHEM_MOLECULAR_WEIGHT>
518.4

> <PUBCHEM_OPENEYE_CAN_SMILES>
C1CN(CCN1CCCCNC(=O)C2=CN(N=N2)C3=CC=C(C=C3)[N+](=O)[O-])C4=C(C(=CC=C4)Cl)Cl

> <PUBCHEM_OPENEYE_ISO_SMILES>
C1CN(CCN1CCCCNC(=O)C2=CN(N=N2)C3=CC=C(C=C3)[N+](=O)[O-])C4=C(C(=CC=C4)Cl)Cl

> <PUBCHEM_CACTVS_TPSA>
112

> <PUBCHEM_MONOISOTOPIC_WEIGHT>
517.1395931

> <PUBCHEM_TOTAL_CHARGE>
0

> <PUBCHEM_HEAVY_ATOM_COUNT>
35

> <PUBCHEM_ATOM_DEF_STEREO_COUNT>
0

> <PUBCHEM_ATOM_UDEF_STEREO_COUNT>
0

> <PUBCHEM_BOND_DEF_STEREO_COUNT>
0

> <PUBCHEM_BOND_UDEF_STEREO_COUNT>
0

> <PUBCHEM_ISOTOPIC_ATOM_COUNT>
0

> <PUBCHEM_COMPONENT_COUNT>
1

> <PUBCHEM_CACTVS_TAUTO_COUNT>
-1

> <PUBCHEM_COORDINATE_TYPE>
1
5
255

> <PUBCHEM_BONDANNOTATIONS>
10  11  8
10  28  8
19  22  8
19  23  8
22  24  8
23  25  8
24  26  8
25  26  8
28  29  8
30  31  8
30  32  8
31  33  8
32  34  8
33  35  8
34  35  8
9  11  8
9  29  8

$$$$
