145981310
  -OEChem-09292322062D

 63 68  0     1  0  0  0  0  0999 V2000
    2.0000    1.1514    0.0000 S   0  0  0  0  0  0  0  0  0  0  0  0
   12.8196   -3.0072    0.0000 O   0  0  0  0  0  0  0  0  0  0  0  0
   11.6189    0.2916    0.0000 O   0  0  0  0  0  0  0  0  0  0  0  0
   11.9627   -1.4511    0.0000 N   0  0  0  0  0  0  0  0  0  0  0  0
    6.8455   -0.5488    0.0000 N   0  0  0  0  0  0  0  0  0  0  0  0
    5.3134    0.7368    0.0000 N   0  0  0  0  0  0  0  0  0  0  0  0
   13.5713   -1.3977    0.0000 C   0  0  1  0  0  0  0  0  0  0  0  0
   13.2293   -0.4580    0.0000 C   0  0  2  0  0  0  0  0  0  0  0  0
   14.9440   -0.8057    0.0000 C   0  0  2  0  0  0  0  0  0  0  0  0
   15.2028    0.1602    0.0000 C   0  0  1  0  0  0  0  0  0  0  0  0
   14.4662    1.1428    0.0000 C   0  0  0  0  0  0  0  0  0  0  0  0
   16.3430   -1.3145    0.0000 C   0  0  0  0  0  0  0  0  0  0  0  0
   16.6018   -0.3486    0.0000 C   0  0  0  0  0  0  0  0  0  0  0  0
   12.7864   -2.0077    0.0000 C   0  0  0  0  0  0  0  0  0  0  0  0
   12.2359   -0.4953    0.0000 C   0  0  0  0  0  0  0  0  0  0  0  0
   11.0230   -1.7931    0.0000 C   0  0  0  0  0  0  0  0  0  0  0  0
   10.2570   -1.1503    0.0000 C   0  0  0  0  0  0  0  0  0  0  0  0
    9.3173   -1.4924    0.0000 C   0  0  0  0  0  0  0  0  0  0  0  0
    8.5513   -0.8496    0.0000 C   0  0  0  0  0  0  0  0  0  0  0  0
    7.6116   -1.1916    0.0000 C   0  0  0  0  0  0  0  0  0  0  0  0
    7.0192    0.4360    0.0000 C   0  0  0  0  0  0  0  0  0  0  0  0
    5.9058   -0.8908    0.0000 C   0  0  0  0  0  0  0  0  0  0  0  0
    6.2531    1.0788    0.0000 C   0  0  0  0  0  0  0  0  0  0  0  0
    5.1398   -0.2480    0.0000 C   0  0  0  0  0  0  0  0  0  0  0  0
    4.5474    1.3796    0.0000 C   0  0  0  0  0  0  0  0  0  0  0  0
    3.6077    1.0375    0.0000 C   0  0  0  0  0  0  0  0  0  0  0  0
    4.7210    2.3644    0.0000 C   0  0  0  0  0  0  0  0  0  0  0  0
    2.8417    1.6803    0.0000 C   0  0  0  0  0  0  0  0  0  0  0  0
    3.2329    0.1168    0.0000 C   0  0  0  0  0  0  0  0  0  0  0  0
    3.9550    3.0072    0.0000 C   0  0  0  0  0  0  0  0  0  0  0  0
    3.0153    2.6651    0.0000 C   0  0  0  0  0  0  0  0  0  0  0  0
    2.2413    0.1870    0.0000 C   0  0  0  0  0  0  0  0  0  0  0  0
   13.8620   -2.1965    0.0000 H   0  0  0  0  0  0  0  0  0  0  0  0
   12.9386    0.3407    0.0000 H   0  0  0  0  0  0  0  0  0  0  0  0
   14.7240   -1.6267    0.0000 H   0  0  0  0  0  0  0  0  0  0  0  0
   15.4228    0.9813    0.0000 H   0  0  0  0  0  0  0  0  0  0  0  0
   14.7840    1.6752    0.0000 H   0  0  0  0  0  0  0  0  0  0  0  0
   13.8531    1.2348    0.0000 H   0  0  0  0  0  0  0  0  0  0  0  0
   16.6293   -1.8644    0.0000 H   0  0  0  0  0  0  0  0  0  0  0  0
   17.1517   -0.0622    0.0000 H   0  0  0  0  0  0  0  0  0  0  0  0
   10.5481   -2.1917    0.0000 H   0  0  0  0  0  0  0  0  0  0  0  0
   11.3330   -2.3301    0.0000 H   0  0  0  0  0  0  0  0  0  0  0  0
   10.7319   -0.7518    0.0000 H   0  0  0  0  0  0  0  0  0  0  0  0
    9.9470   -0.6134    0.0000 H   0  0  0  0  0  0  0  0  0  0  0  0
    8.8424   -1.8909    0.0000 H   0  0  0  0  0  0  0  0  0  0  0  0
    9.6273   -2.0293    0.0000 H   0  0  0  0  0  0  0  0  0  0  0  0
    9.0262   -0.4510    0.0000 H   0  0  0  0  0  0  0  0  0  0  0  0
    8.2413   -0.3126    0.0000 H   0  0  0  0  0  0  0  0  0  0  0  0
    7.1366   -1.5901    0.0000 H   0  0  0  0  0  0  0  0  0  0  0  0
    7.9216   -1.7285    0.0000 H   0  0  0  0  0  0  0  0  0  0  0  0
    7.6018    0.2240    0.0000 H   0  0  0  0  0  0  0  0  0  0  0  0
    7.3292    0.9729    0.0000 H   0  0  0  0  0  0  0  0  0  0  0  0
    5.4309   -1.2894    0.0000 H   0  0  0  0  0  0  0  0  0  0  0  0
    6.2158   -1.4278    0.0000 H   0  0  0  0  0  0  0  0  0  0  0  0
    6.7281    1.4773    0.0000 H   0  0  0  0  0  0  0  0  0  0  0  0
    5.9431    1.6157    0.0000 H   0  0  0  0  0  0  0  0  0  0  0  0
    4.5572   -0.0360    0.0000 H   0  0  0  0  0  0  0  0  0  0  0  0
    4.8298   -0.7850    0.0000 H   0  0  0  0  0  0  0  0  0  0  0  0
    5.3036    2.5764    0.0000 H   0  0  0  0  0  0  0  0  0  0  0  0
    3.5606   -0.4095    0.0000 H   0  0  0  0  0  0  0  0  0  0  0  0
    4.0627    3.6177    0.0000 H   0  0  0  0  0  0  0  0  0  0  0  0
    2.5404    3.0637    0.0000 H   0  0  0  0  0  0  0  0  0  0  0  0
    1.8428   -0.2879    0.0000 H   0  0  0  0  0  0  0  0  0  0  0  0
  1 28  1  0  0  0  0
  1 32  1  0  0  0  0
  2 14  2  0  0  0  0
  3 15  2  0  0  0  0
  4 14  1  0  0  0  0
  4 15  1  0  0  0  0
  4 16  1  0  0  0  0
  5 20  1  0  0  0  0
  5 21  1  0  0  0  0
  5 22  1  0  0  0  0
  6 23  1  0  0  0  0
  6 24  1  0  0  0  0
  6 25  1  0  0  0  0
  7  8  1  0  0  0  0
  7  9  1  0  0  0  0
  7 14  1  0  0  0  0
  7 33  1  6  0  0  0
  8 10  1  0  0  0  0
  8 15  1  0  0  0  0
  8 34  1  6  0  0  0
  9 11  1  0  0  0  0
  9 12  1  0  0  0  0
  9 35  1  1  0  0  0
 10 11  1  0  0  0  0
 10 13  1  0  0  0  0
 10 36  1  6  0  0  0
 11 37  1  0  0  0  0
 11 38  1  0  0  0  0
 12 13  2  0  0  0  0
 12 39  1  0  0  0  0
 13 40  1  0  0  0  0
 16 17  1  0  0  0  0
 16 41  1  0  0  0  0
 16 42  1  0  0  0  0
 17 18  1  0  0  0  0
 17 43  1  0  0  0  0
 17 44  1  0  0  0  0
 18 19  1  0  0  0  0
 18 45  1  0  0  0  0
 18 46  1  0  0  0  0
 19 20  1  0  0  0  0
 19 47  1  0  0  0  0
 19 48  1  0  0  0  0
 20 49  1  0  0  0  0
 20 50  1  0  0  0  0
 21 23  1  0  0  0  0
 21 51  1  0  0  0  0
 21 52  1  0  0  0  0
 22 24  1  0  0  0  0
 22 53  1  0  0  0  0
 22 54  1  0  0  0  0
 23 55  1  0  0  0  0
 23 56  1  0  0  0  0
 24 57  1  0  0  0  0
 24 58  1  0  0  0  0
 25 26  2  0  0  0  0
 25 27  1  0  0  0  0
 26 28  1  0  0  0  0
 26 29  1  0  0  0  0
 27 30  2  0  0  0  0
 27 59  1  0  0  0  0
 28 31  2  0  0  0  0
 29 32  2  0  0  0  0
 29 60  1  0  0  0  0
 30 31  1  0  0  0  0
 30 61  1  0  0  0  0
 31 62  1  0  0  0  0
 32 63  1  0  0  0  0
M  END
> <PUBCHEM_COMPOUND_CID>
145981310

> <PUBCHEM_COMPOUND_CANONICALIZED>
1

> <PUBCHEM_CACTVS_COMPLEXITY>
734

> <PUBCHEM_CACTVS_HBOND_ACCEPTOR>
5

> <PUBCHEM_CACTVS_HBOND_DONOR>
0

> <PUBCHEM_CACTVS_ROTATABLE_BOND>
7

> <PUBCHEM_CACTVS_SUBSKEYS>
AAADceB7MABAAAAAAAAAAAAAAAAAAeJECAA8QIAAAAAWAEgB8AAAHgQAAAAADQjF2ASwwcMAAAiMAiVSUACDAIAhChBIiBkIZIgIYDLgkZGUIAxghiDoyAcdiICOgAAAACAGAAAAAAAAQAwAAQAACAAAAA==

> <PUBCHEM_IUPAC_OPENEYE_NAME>
(1R,2R,6S,7S)-4-[5-[4-(benzothiophen-4-yl)piperazin-1-yl]pentyl]-4-azatricyclo[5.2.1.02,6]dec-8-ene-3,5-dione

> <PUBCHEM_IUPAC_CAS_NAME>
(1R,2R,6S,7S)-4-[5-[4-(1-benzothiophen-4-yl)-1-piperazinyl]pentyl]-4-azatricyclo[5.2.1.02,6]dec-8-ene-3,5-dione

> <PUBCHEM_IUPAC_NAME_MARKUP>
(1<I>R</I>,2<I>R</I>,6<I>S</I>,7<I>S</I>)-4-[5-[4-(1-benzothiophen-4-yl)piperazin-1-yl]pentyl]-4-azatricyclo[5.2.1.0<SUP>2,6</SUP>]dec-8-ene-3,5-dione

> <PUBCHEM_IUPAC_NAME>
(1R,2R,6S,7S)-4-[5-[4-(1-benzothiophen-4-yl)piperazin-1-yl]pentyl]-4-azatricyclo[5.2.1.02,6]dec-8-ene-3,5-dione

> <PUBCHEM_IUPAC_SYSTEMATIC_NAME>
(1R,2R,6S,7S)-4-[5-[4-(1-benzothiophen-4-yl)piperazin-1-yl]pentyl]-4-azatricyclo[5.2.1.02,6]dec-8-ene-3,5-dione

> <PUBCHEM_IUPAC_TRADITIONAL_NAME>
(1R,2R,6S,7S)-4-[5-[4-(benzothiophen-4-yl)piperazino]pentyl]-4-azatricyclo[5.2.1.02,6]dec-8-ene-3,5-quinone

> <PUBCHEM_IUPAC_INCHI>
InChI=1S/C26H31N3O2S/c30-25-23-18-7-8-19(17-18)24(23)26(31)29(25)11-3-1-2-10-27-12-14-28(15-13-27)21-5-4-6-22-20(21)9-16-32-22/h4-9,16,18-19,23-24H,1-3,10-15,17H2/t18-,19+,23+,24-

> <PUBCHEM_IUPAC_INCHIKEY>
SCKAFECHWFQWIZ-WLJAXQAKSA-N

> <PUBCHEM_XLOGP3_AA>
4

> <PUBCHEM_EXACT_MASS>
449.21369841

> <PUBCHEM_MOLECULAR_FORMULA>
C26H31N3O2S

> <PUBCHEM_MOLECULAR_WEIGHT>
449.6

> <PUBCHEM_OPENEYE_CAN_SMILES>
C1CN(CCN1CCCCCN2C(=O)C3C4CC(C3C2=O)C=C4)C5=C6C=CSC6=CC=C5

> <PUBCHEM_OPENEYE_ISO_SMILES>
C1CN(CCN1CCCCCN2C(=O)[C@@H]3[C@@H]4C[C@H]([C@@H]3C2=O)C=C4)C5=C6C=CSC6=CC=C5

> <PUBCHEM_CACTVS_TPSA>
72.1

> <PUBCHEM_MONOISOTOPIC_WEIGHT>
449.21369841

> <PUBCHEM_TOTAL_CHARGE>
0

> <PUBCHEM_HEAVY_ATOM_COUNT>
32

> <PUBCHEM_ATOM_DEF_STEREO_COUNT>
4

> <PUBCHEM_ATOM_UDEF_STEREO_COUNT>
0

> <PUBCHEM_BOND_DEF_STEREO_COUNT>
0

> <PUBCHEM_BOND_UDEF_STEREO_COUNT>
0

> <PUBCHEM_ISOTOPIC_ATOM_COUNT>
0

> <PUBCHEM_COMPONENT_COUNT>
1

> <PUBCHEM_CACTVS_TAUTO_COUNT>
-1

> <PUBCHEM_COORDINATE_TYPE>
1
5
255

> <PUBCHEM_BONDANNOTATIONS>
1  28  8
1  32  8
10  36  6
25  26  8
25  27  8
26  28  8
26  29  8
27  30  8
28  31  8
29  32  8
30  31  8
7  33  6
8  34  6
9  35  5

$$$$
