44273741
  -OEChem-09292322202D

 66 70  0     0  0  0  0  0  0999 V2000
    6.2710    6.9301    0.0000 Cl  0  0  0  0  0  0  0  0  0  0  0  0
    2.8070   -3.0699    0.0000 O   0  0  0  0  0  0  0  0  0  0  0  0
    4.5390   -3.0699    0.0000 N   0  0  0  0  0  0  0  0  0  0  0  0
    6.2711    0.9301    0.0000 N   0  0  0  0  0  0  0  0  0  0  0  0
    6.2710    2.9301    0.0000 N   0  0  0  0  0  0  0  0  0  0  0  0
    3.6730   -4.5699    0.0000 C   0  0  0  0  0  0  0  0  0  0  0  0
    4.5092   -6.0182    0.0000 C   0  0  0  0  0  0  0  0  0  0  0  0
    2.8368   -6.0182    0.0000 C   0  0  0  0  0  0  0  0  0  0  0  0
    2.9819   -6.4533    0.0000 C   0  0  0  0  0  0  0  0  0  0  0  0
    4.5092   -5.0527    0.0000 C   0  0  0  0  0  0  0  0  0  0  0  0
    2.8368   -5.0527    0.0000 C   0  0  0  0  0  0  0  0  0  0  0  0
    2.9819   -5.4080    0.0000 C   0  0  0  0  0  0  0  0  0  0  0  0
    3.6730   -6.3210    0.0000 C   0  0  0  0  0  0  0  0  0  0  0  0
    3.8876   -6.9301    0.0000 C   0  0  0  0  0  0  0  0  0  0  0  0
    2.0000   -6.5010    0.0000 C   0  0  0  0  0  0  0  0  0  0  0  0
    3.6730   -3.5699    0.0000 C   0  0  0  0  0  0  0  0  0  0  0  0
    4.5390   -2.0699    0.0000 C   0  0  0  0  0  0  0  0  0  0  0  0
    5.4050   -1.5699    0.0000 C   0  0  0  0  0  0  0  0  0  0  0  0
    5.4050   -0.5699    0.0000 C   0  0  0  0  0  0  0  0  0  0  0  0
    6.2711   -0.0699    0.0000 C   0  0  0  0  0  0  0  0  0  0  0  0
    7.1371    1.4301    0.0000 C   0  0  0  0  0  0  0  0  0  0  0  0
    5.4050    1.4301    0.0000 C   0  0  0  0  0  0  0  0  0  0  0  0
    7.1371    2.4301    0.0000 C   0  0  0  0  0  0  0  0  0  0  0  0
    5.4050    2.4301    0.0000 C   0  0  0  0  0  0  0  0  0  0  0  0
    6.2710    3.9301    0.0000 C   0  0  0  0  0  0  0  0  0  0  0  0
    5.4050    4.4301    0.0000 C   0  0  0  0  0  0  0  0  0  0  0  0
    7.1371    4.4301    0.0000 C   0  0  0  0  0  0  0  0  0  0  0  0
    5.4050    5.4301    0.0000 C   0  0  0  0  0  0  0  0  0  0  0  0
    7.1371    5.4301    0.0000 C   0  0  0  0  0  0  0  0  0  0  0  0
    6.2710    5.9301    0.0000 C   0  0  0  0  0  0  0  0  0  0  0  0
    5.1016   -6.2009    0.0000 H   0  0  0  0  0  0  0  0  0  0  0  0
    3.3444   -5.6622    0.0000 H   0  0  0  0  0  0  0  0  0  0  0  0
    2.8478   -7.0586    0.0000 H   0  0  0  0  0  0  0  0  0  0  0  0
    5.1198   -5.1603    0.0000 H   0  0  0  0  0  0  0  0  0  0  0  0
    4.7212   -4.4701    0.0000 H   0  0  0  0  0  0  0  0  0  0  0  0
    2.6247   -4.4701    0.0000 H   0  0  0  0  0  0  0  0  0  0  0  0
    2.2262   -5.1603    0.0000 H   0  0  0  0  0  0  0  0  0  0  0  0
    2.6383   -4.8920    0.0000 H   0  0  0  0  0  0  0  0  0  0  0  0
    2.3885   -5.5875    0.0000 H   0  0  0  0  0  0  0  0  0  0  0  0
    3.3030   -6.8185    0.0000 H   0  0  0  0  0  0  0  0  0  0  0  0
    4.0430   -6.8185    0.0000 H   0  0  0  0  0  0  0  0  0  0  0  0
    4.4127   -7.2597    0.0000 H   0  0  0  0  0  0  0  0  0  0  0  0
    3.5782   -7.4674    0.0000 H   0  0  0  0  0  0  0  0  0  0  0  0
    1.5188   -6.1101    0.0000 H   0  0  0  0  0  0  0  0  0  0  0  0
    1.8068   -7.0901    0.0000 H   0  0  0  0  0  0  0  0  0  0  0  0
    5.0760   -3.3799    0.0000 H   0  0  0  0  0  0  0  0  0  0  0  0
    4.3270   -1.4873    0.0000 H   0  0  0  0  0  0  0  0  0  0  0  0
    3.9284   -2.1776    0.0000 H   0  0  0  0  0  0  0  0  0  0  0  0
    5.6171   -2.1525    0.0000 H   0  0  0  0  0  0  0  0  0  0  0  0
    6.0156   -1.4622    0.0000 H   0  0  0  0  0  0  0  0  0  0  0  0
    5.1930    0.0127    0.0000 H   0  0  0  0  0  0  0  0  0  0  0  0
    4.7945   -0.6776    0.0000 H   0  0  0  0  0  0  0  0  0  0  0  0
    6.4831   -0.6525    0.0000 H   0  0  0  0  0  0  0  0  0  0  0  0
    6.8816    0.0378    0.0000 H   0  0  0  0  0  0  0  0  0  0  0  0
    7.3491    0.8475    0.0000 H   0  0  0  0  0  0  0  0  0  0  0  0
    7.7477    1.5378    0.0000 H   0  0  0  0  0  0  0  0  0  0  0  0
    4.7944    1.5378    0.0000 H   0  0  0  0  0  0  0  0  0  0  0  0
    5.1930    0.8475    0.0000 H   0  0  0  0  0  0  0  0  0  0  0  0
    7.7477    2.3225    0.0000 H   0  0  0  0  0  0  0  0  0  0  0  0
    7.3491    3.0127    0.0000 H   0  0  0  0  0  0  0  0  0  0  0  0
    5.1930    3.0127    0.0000 H   0  0  0  0  0  0  0  0  0  0  0  0
    4.7944    2.3224    0.0000 H   0  0  0  0  0  0  0  0  0  0  0  0
    4.8681    4.1201    0.0000 H   0  0  0  0  0  0  0  0  0  0  0  0
    7.6740    4.1201    0.0000 H   0  0  0  0  0  0  0  0  0  0  0  0
    4.8681    5.7401    0.0000 H   0  0  0  0  0  0  0  0  0  0  0  0
    7.6740    5.7401    0.0000 H   0  0  0  0  0  0  0  0  0  0  0  0
  1 30  1  0  0  0  0
  2 16  2  0  0  0  0
  3 16  1  0  0  0  0
  3 17  1  0  0  0  0
  3 46  1  0  0  0  0
  4 20  1  0  0  0  0
  4 21  1  0  0  0  0
  4 22  1  0  0  0  0
  5 23  1  0  0  0  0
  5 24  1  0  0  0  0
  5 25  1  0  0  0  0
  6 10  1  0  0  0  0
  6 11  1  0  0  0  0
  6 12  1  0  0  0  0
  6 16  1  0  0  0  0
  7 10  1  0  0  0  0
  7 13  1  0  0  0  0
  7 14  1  0  0  0  0
  7 31  1  0  0  0  0
  8 11  1  0  0  0  0
  8 13  1  0  0  0  0
  8 15  1  0  0  0  0
  8 32  1  0  0  0  0
  9 12  1  0  0  0  0
  9 14  1  0  0  0  0
  9 15  1  0  0  0  0
  9 33  1  0  0  0  0
 10 34  1  0  0  0  0
 10 35  1  0  0  0  0
 11 36  1  0  0  0  0
 11 37  1  0  0  0  0
 12 38  1  0  0  0  0
 12 39  1  0  0  0  0
 13 40  1  0  0  0  0
 13 41  1  0  0  0  0
 14 42  1  0  0  0  0
 14 43  1  0  0  0  0
 15 44  1  0  0  0  0
 15 45  1  0  0  0  0
 17 18  1  0  0  0  0
 17 47  1  0  0  0  0
 17 48  1  0  0  0  0
 18 19  1  0  0  0  0
 18 49  1  0  0  0  0
 18 50  1  0  0  0  0
 19 20  1  0  0  0  0
 19 51  1  0  0  0  0
 19 52  1  0  0  0  0
 20 53  1  0  0  0  0
 20 54  1  0  0  0  0
 21 23  1  0  0  0  0
 21 55  1  0  0  0  0
 21 56  1  0  0  0  0
 22 24  1  0  0  0  0
 22 57  1  0  0  0  0
 22 58  1  0  0  0  0
 23 59  1  0  0  0  0
 23 60  1  0  0  0  0
 24 61  1  0  0  0  0
 24 62  1  0  0  0  0
 25 26  2  0  0  0  0
 25 27  1  0  0  0  0
 26 28  1  0  0  0  0
 26 63  1  0  0  0  0
 27 29  2  0  0  0  0
 27 64  1  0  0  0  0
 28 30  2  0  0  0  0
 28 65  1  0  0  0  0
 29 30  1  0  0  0  0
 29 66  1  0  0  0  0
M  END
> <PUBCHEM_COMPOUND_CID>
44273741

> <PUBCHEM_COMPOUND_CANONICALIZED>
1

> <PUBCHEM_CACTVS_COMPLEXITY>
554

> <PUBCHEM_CACTVS_HBOND_ACCEPTOR>
3

> <PUBCHEM_CACTVS_HBOND_DONOR>
1

> <PUBCHEM_CACTVS_ROTATABLE_BOND>
7

> <PUBCHEM_CACTVS_SUBSKEYS>
AAADcfB7IAAEAAAAAAAAAAAAAAAAAAAAAAA8YMGDAAAAAAABAAAAHgIQAAAADwrBkCQwwIPAAACIACVSUACCAAAhBwAIiIEIZogIYDLBk5GUIAhglgDIyAcYiMCPAABAAAAAAAAAAIQAAAAAAAAAAAAAAA==

> <PUBCHEM_IUPAC_OPENEYE_NAME>
N-[4-[4-(4-chlorophenyl)piperazin-1-yl]butyl]adamantane-1-carboxamide

> <PUBCHEM_IUPAC_CAS_NAME>
N-[4-[4-(4-chlorophenyl)-1-piperazinyl]butyl]-1-adamantanecarboxamide

> <PUBCHEM_IUPAC_NAME_MARKUP>
<I>N</I>-[4-[4-(4-chlorophenyl)piperazin-1-yl]butyl]adamantane-1-carboxamide

> <PUBCHEM_IUPAC_NAME>
N-[4-[4-(4-chlorophenyl)piperazin-1-yl]butyl]adamantane-1-carboxamide

> <PUBCHEM_IUPAC_SYSTEMATIC_NAME>
N-[4-[4-(4-chlorophenyl)piperazin-1-yl]butyl]adamantane-1-carboxamide

> <PUBCHEM_IUPAC_TRADITIONAL_NAME>
N-[4-[4-(4-chlorophenyl)piperazino]butyl]adamantane-1-carboxamide

> <PUBCHEM_IUPAC_INCHI>
InChI=1S/C25H36ClN3O/c26-22-3-5-23(6-4-22)29-11-9-28(10-12-29)8-2-1-7-27-24(30)25-16-19-13-20(17-25)15-21(14-19)18-25/h3-6,19-21H,1-2,7-18H2,(H,27,30)

> <PUBCHEM_IUPAC_INCHIKEY>
SIXUZLJWMWYQSF-UHFFFAOYSA-N

> <PUBCHEM_XLOGP3_AA>
5.1

> <PUBCHEM_EXACT_MASS>
429.2546905

> <PUBCHEM_MOLECULAR_FORMULA>
C25H36ClN3O

> <PUBCHEM_MOLECULAR_WEIGHT>
430.0

> <PUBCHEM_OPENEYE_CAN_SMILES>
C1CN(CCN1CCCCNC(=O)C23CC4CC(C2)CC(C4)C3)C5=CC=C(C=C5)Cl

> <PUBCHEM_OPENEYE_ISO_SMILES>
C1CN(CCN1CCCCNC(=O)C23CC4CC(C2)CC(C4)C3)C5=CC=C(C=C5)Cl

> <PUBCHEM_CACTVS_TPSA>
35.6

> <PUBCHEM_MONOISOTOPIC_WEIGHT>
429.2546905

> <PUBCHEM_TOTAL_CHARGE>
0

> <PUBCHEM_HEAVY_ATOM_COUNT>
30

> <PUBCHEM_ATOM_DEF_STEREO_COUNT>
0

> <PUBCHEM_ATOM_UDEF_STEREO_COUNT>
0

> <PUBCHEM_BOND_DEF_STEREO_COUNT>
0

> <PUBCHEM_BOND_UDEF_STEREO_COUNT>
0

> <PUBCHEM_ISOTOPIC_ATOM_COUNT>
0

> <PUBCHEM_COMPONENT_COUNT>
1

> <PUBCHEM_CACTVS_TAUTO_COUNT>
-1

> <PUBCHEM_COORDINATE_TYPE>
1
5
255

> <PUBCHEM_BONDANNOTATIONS>
25  26  8
25  27  8
26  28  8
27  29  8
28  30  8
29  30  8

$$$$
