162661950
  -OEChem-09292322062D

 61 64  0     0  0  0  0  0  0999 V2000
    5.4641    5.2071    0.0000 O   0  0  0  0  0  0  0  0  0  0  0  0
    4.5981    1.2929    0.0000 O   0  0  0  0  0  0  0  0  0  0  0  0
    8.9282   -3.2071    0.0000 O   0  0  0  0  0  0  0  0  0  0  0  0
    7.1962   -0.2071    0.0000 N   0  0  0  0  0  0  0  0  0  0  0  0
    5.4641    2.7929    0.0000 N   0  0  0  0  0  0  0  0  0  0  0  0
    7.1962   -2.2071    0.0000 N   0  0  0  0  0  0  0  0  0  0  0  0
    5.4641    3.7929    0.0000 C   0  0  0  0  0  0  0  0  0  0  0  0
    7.1962    0.7929    0.0000 C   0  0  0  0  0  0  0  0  0  0  0  0
    8.0622   -0.7071    0.0000 C   0  0  0  0  0  0  0  0  0  0  0  0
    6.3301   -0.7071    0.0000 C   0  0  0  0  0  0  0  0  0  0  0  0
    6.3301    1.2929    0.0000 C   0  0  0  0  0  0  0  0  0  0  0  0
    6.3301    2.2929    0.0000 C   0  0  0  0  0  0  0  0  0  0  0  0
    8.0622   -1.7071    0.0000 C   0  0  0  0  0  0  0  0  0  0  0  0
    6.3301   -1.7071    0.0000 C   0  0  0  0  0  0  0  0  0  0  0  0
    4.7570    4.5000    0.0000 C   0  0  0  0  0  0  0  0  0  0  0  0
    6.1712    4.5000    0.0000 C   0  0  0  0  0  0  0  0  0  0  0  0
    7.1962   -3.2071    0.0000 C   0  0  0  0  0  0  0  0  0  0  0  0
    4.5981    2.2929    0.0000 C   0  0  0  0  0  0  0  0  0  0  0  0
    8.0622   -3.7071    0.0000 C   0  0  0  0  0  0  0  0  0  0  0  0
    3.7320    2.7929    0.0000 C   0  0  0  0  0  0  0  0  0  0  0  0
    6.3301   -3.7071    0.0000 C   0  0  0  0  0  0  0  0  0  0  0  0
    8.0622   -4.7071    0.0000 C   0  0  0  0  0  0  0  0  0  0  0  0
    6.3301   -4.7071    0.0000 C   0  0  0  0  0  0  0  0  0  0  0  0
    3.7320    3.7929    0.0000 C   0  0  0  0  0  0  0  0  0  0  0  0
    2.8660    2.2929    0.0000 C   0  0  0  0  0  0  0  0  0  0  0  0
    7.1962   -5.2071    0.0000 C   0  0  0  0  0  0  0  0  0  0  0  0
    2.8660    4.2929    0.0000 C   0  0  0  0  0  0  0  0  0  0  0  0
    2.0000    2.7929    0.0000 C   0  0  0  0  0  0  0  0  0  0  0  0
    2.0000    3.7929    0.0000 C   0  0  0  0  0  0  0  0  0  0  0  0
    9.7942   -3.7071    0.0000 C   0  0  0  0  0  0  0  0  0  0  0  0
    6.0369    3.5556    0.0000 H   0  0  0  0  0  0  0  0  0  0  0  0
    7.8067    0.6852    0.0000 H   0  0  0  0  0  0  0  0  0  0  0  0
    7.4082    1.3755    0.0000 H   0  0  0  0  0  0  0  0  0  0  0  0
    8.6728   -0.8148    0.0000 H   0  0  0  0  0  0  0  0  0  0  0  0
    8.2742   -0.1245    0.0000 H   0  0  0  0  0  0  0  0  0  0  0  0
    6.1181   -0.1245    0.0000 H   0  0  0  0  0  0  0  0  0  0  0  0
    5.7196   -0.8148    0.0000 H   0  0  0  0  0  0  0  0  0  0  0  0
    5.7196    1.4006    0.0000 H   0  0  0  0  0  0  0  0  0  0  0  0
    6.1181    0.7103    0.0000 H   0  0  0  0  0  0  0  0  0  0  0  0
    6.9407    2.1852    0.0000 H   0  0  0  0  0  0  0  0  0  0  0  0
    6.5422    2.8755    0.0000 H   0  0  0  0  0  0  0  0  0  0  0  0
    8.2742   -2.2897    0.0000 H   0  0  0  0  0  0  0  0  0  0  0  0
    8.6728   -1.5994    0.0000 H   0  0  0  0  0  0  0  0  0  0  0  0
    5.7196   -1.5994    0.0000 H   0  0  0  0  0  0  0  0  0  0  0  0
    6.1181   -2.2897    0.0000 H   0  0  0  0  0  0  0  0  0  0  0  0
    4.3186    4.9384    0.0000 H   0  0  0  0  0  0  0  0  0  0  0  0
    4.3186    4.0616    0.0000 H   0  0  0  0  0  0  0  0  0  0  0  0
    6.6096    4.0616    0.0000 H   0  0  0  0  0  0  0  0  0  0  0  0
    6.6096    4.9384    0.0000 H   0  0  0  0  0  0  0  0  0  0  0  0
    5.7932   -3.3971    0.0000 H   0  0  0  0  0  0  0  0  0  0  0  0
    8.5991   -5.0171    0.0000 H   0  0  0  0  0  0  0  0  0  0  0  0
    5.7932   -5.0171    0.0000 H   0  0  0  0  0  0  0  0  0  0  0  0
    4.2690    4.1029    0.0000 H   0  0  0  0  0  0  0  0  0  0  0  0
    2.8660    1.6729    0.0000 H   0  0  0  0  0  0  0  0  0  0  0  0
    7.1962   -5.8271    0.0000 H   0  0  0  0  0  0  0  0  0  0  0  0
    2.8660    4.9129    0.0000 H   0  0  0  0  0  0  0  0  0  0  0  0
    1.4631    2.4829    0.0000 H   0  0  0  0  0  0  0  0  0  0  0  0
    1.4631    4.1029    0.0000 H   0  0  0  0  0  0  0  0  0  0  0  0
    9.4842   -4.2440    0.0000 H   0  0  0  0  0  0  0  0  0  0  0  0
   10.3312   -4.0171    0.0000 H   0  0  0  0  0  0  0  0  0  0  0  0
   10.1042   -3.1702    0.0000 H   0  0  0  0  0  0  0  0  0  0  0  0
  1 15  1  0  0  0  0
  1 16  1  0  0  0  0
  2 18  2  0  0  0  0
  3 19  1  0  0  0  0
  3 30  1  0  0  0  0
  4  8  1  0  0  0  0
  4  9  1  0  0  0  0
  4 10  1  0  0  0  0
  5  7  1  0  0  0  0
  5 12  1  0  0  0  0
  5 18  1  0  0  0  0
  6 13  1  0  0  0  0
  6 14  1  0  0  0  0
  6 17  1  0  0  0  0
  7 15  1  0  0  0  0
  7 16  1  0  0  0  0
  7 31  1  0  0  0  0
  8 11  1  0  0  0  0
  8 32  1  0  0  0  0
  8 33  1  0  0  0  0
  9 13  1  0  0  0  0
  9 34  1  0  0  0  0
  9 35  1  0  0  0  0
 10 14  1  0  0  0  0
 10 36  1  0  0  0  0
 10 37  1  0  0  0  0
 11 12  1  0  0  0  0
 11 38  1  0  0  0  0
 11 39  1  0  0  0  0
 12 40  1  0  0  0  0
 12 41  1  0  0  0  0
 13 42  1  0  0  0  0
 13 43  1  0  0  0  0
 14 44  1  0  0  0  0
 14 45  1  0  0  0  0
 15 46  1  0  0  0  0
 15 47  1  0  0  0  0
 16 48  1  0  0  0  0
 16 49  1  0  0  0  0
 17 19  1  0  0  0  0
 17 21  2  0  0  0  0
 18 20  1  0  0  0  0
 19 22  2  0  0  0  0
 20 24  2  0  0  0  0
 20 25  1  0  0  0  0
 21 23  1  0  0  0  0
 21 50  1  0  0  0  0
 22 26  1  0  0  0  0
 22 51  1  0  0  0  0
 23 26  2  0  0  0  0
 23 52  1  0  0  0  0
 24 27  1  0  0  0  0
 24 53  1  0  0  0  0
 25 28  2  0  0  0  0
 25 54  1  0  0  0  0
 26 55  1  0  0  0  0
 27 29  2  0  0  0  0
 27 56  1  0  0  0  0
 28 29  1  0  0  0  0
 28 57  1  0  0  0  0
 29 58  1  0  0  0  0
 30 59  1  0  0  0  0
 30 60  1  0  0  0  0
 30 61  1  0  0  0  0
M  END
> <PUBCHEM_COMPOUND_CID>
162661950

> <PUBCHEM_COMPOUND_CANONICALIZED>
1

> <PUBCHEM_CACTVS_COMPLEXITY>
528

> <PUBCHEM_CACTVS_HBOND_ACCEPTOR>
5

> <PUBCHEM_CACTVS_HBOND_DONOR>
0

> <PUBCHEM_CACTVS_ROTATABLE_BOND>
8

> <PUBCHEM_CACTVS_SUBSKEYS>
AAADceB7MAAAAAAAAAAAAAAAAABIAAAAAAA8YIAAAAAAAAABQAAAHgAAAAAADCzhmAYyxoMABACIAiVSUACCCAAlIgAIiAEPbMgOZjLE9ZuVMShkxhHY6YeYyACOAAAAAAAAEAAAAAAAAAAgAAAAAAAAAA==

> <PUBCHEM_IUPAC_OPENEYE_NAME>
N-[3-[4-(2-methoxyphenyl)piperazin-1-yl]propyl]-N-(oxetan-3-yl)benzamide

> <PUBCHEM_IUPAC_CAS_NAME>
N-[3-[4-(2-methoxyphenyl)-1-piperazinyl]propyl]-N-(3-oxetanyl)benzamide

> <PUBCHEM_IUPAC_NAME_MARKUP>
<I>N</I>-[3-[4-(2-methoxyphenyl)piperazin-1-yl]propyl]-<I>N</I>-(oxetan-3-yl)benzamide

> <PUBCHEM_IUPAC_NAME>
N-[3-[4-(2-methoxyphenyl)piperazin-1-yl]propyl]-N-(oxetan-3-yl)benzamide

> <PUBCHEM_IUPAC_SYSTEMATIC_NAME>
N-[3-[4-(2-methoxyphenyl)piperazin-1-yl]propyl]-N-(oxetan-3-yl)benzamide

> <PUBCHEM_IUPAC_TRADITIONAL_NAME>
N-[3-[4-(2-methoxyphenyl)piperazino]propyl]-N-(oxetan-3-yl)benzamide

> <PUBCHEM_IUPAC_INCHI>
InChI=1S/C24H31N3O3/c1-29-23-11-6-5-10-22(23)26-16-14-25(15-17-26)12-7-13-27(21-18-30-19-21)24(28)20-8-3-2-4-9-20/h2-6,8-11,21H,7,12-19H2,1H3

> <PUBCHEM_IUPAC_INCHIKEY>
RQUQHVGVVJGONQ-UHFFFAOYSA-N

> <PUBCHEM_XLOGP3_AA>
3

> <PUBCHEM_EXACT_MASS>
409.23654186

> <PUBCHEM_MOLECULAR_FORMULA>
C24H31N3O3

> <PUBCHEM_MOLECULAR_WEIGHT>
409.5

> <PUBCHEM_OPENEYE_CAN_SMILES>
COC1=CC=CC=C1N2CCN(CC2)CCCN(C3COC3)C(=O)C4=CC=CC=C4

> <PUBCHEM_OPENEYE_ISO_SMILES>
COC1=CC=CC=C1N2CCN(CC2)CCCN(C3COC3)C(=O)C4=CC=CC=C4

> <PUBCHEM_CACTVS_TPSA>
45.2

> <PUBCHEM_MONOISOTOPIC_WEIGHT>
409.23654186

> <PUBCHEM_TOTAL_CHARGE>
0

> <PUBCHEM_HEAVY_ATOM_COUNT>
30

> <PUBCHEM_ATOM_DEF_STEREO_COUNT>
0

> <PUBCHEM_ATOM_UDEF_STEREO_COUNT>
0

> <PUBCHEM_BOND_DEF_STEREO_COUNT>
0

> <PUBCHEM_BOND_UDEF_STEREO_COUNT>
0

> <PUBCHEM_ISOTOPIC_ATOM_COUNT>
0

> <PUBCHEM_COMPONENT_COUNT>
1

> <PUBCHEM_CACTVS_TAUTO_COUNT>
-1

> <PUBCHEM_COORDINATE_TYPE>
1
5
255

> <PUBCHEM_BONDANNOTATIONS>
17  19  8
17  21  8
19  22  8
20  24  8
20  25  8
21  23  8
22  26  8
23  26  8
24  27  8
25  28  8
27  29  8
28  29  8

$$$$
