44439404
  -OEChem-09292322262D

 47 50  0     1  0  0  0  0  0999 V2000
   11.1191    0.7993    0.0000 O   0  0  0  0  0  0  0  0  0  0  0  0
   12.7654    0.2612    0.0000 O   0  0  0  0  0  0  0  0  0  0  0  0
    5.5321    0.0440    0.0000 N   0  0  0  0  0  0  0  0  0  0  0  0
    7.2641    0.0440    0.0000 N   0  0  0  0  0  0  0  0  0  0  0  0
   10.8084   -0.1513    0.0000 C   0  0  3  0  0  0  0  0  0  0  0  0
   11.3920   -0.9560    0.0000 C   0  0  0  0  0  0  0  0  0  0  0  0
   10.8084   -1.7607    0.0000 C   0  0  0  0  0  0  0  0  0  0  0  0
    9.8622   -0.4560    0.0000 C   0  0  0  0  0  0  0  0  0  0  0  0
    9.8622   -1.4560    0.0000 C   0  0  0  0  0  0  0  0  0  0  0  0
    5.5321    1.0440    0.0000 C   0  0  0  0  0  0  0  0  0  0  0  0
    8.9962    0.0440    0.0000 C   0  0  0  0  0  0  0  0  0  0  0  0
    4.6660    1.5440    0.0000 C   0  0  0  0  0  0  0  0  0  0  0  0
    4.6660   -0.4560    0.0000 C   0  0  0  0  0  0  0  0  0  0  0  0
    8.9962   -1.9560    0.0000 C   0  0  0  0  0  0  0  0  0  0  0  0
    3.8000    1.0440    0.0000 C   0  0  0  0  0  0  0  0  0  0  0  0
    3.8000    0.0440    0.0000 C   0  0  0  0  0  0  0  0  0  0  0  0
    8.1301   -0.4560    0.0000 C   0  0  0  0  0  0  0  0  0  0  0  0
    8.1301   -1.4560    0.0000 C   0  0  0  0  0  0  0  0  0  0  0  0
    6.3981   -0.4560    0.0000 C   0  0  0  0  0  0  0  0  0  0  0  0
    2.9061    1.5787    0.0000 C   0  0  0  0  0  0  0  0  0  0  0  0
    2.9061   -0.4907    0.0000 C   0  0  0  0  0  0  0  0  0  0  0  0
    2.0000    1.0648    0.0000 C   0  0  0  0  0  0  0  0  0  0  0  0
    2.0000    0.0232    0.0000 C   0  0  0  0  0  0  0  0  0  0  0  0
   12.0976    1.0055    0.0000 C   0  0  0  0  0  0  0  0  0  0  0  0
   12.4082    1.9560    0.0000 C   0  0  0  0  0  0  0  0  0  0  0  0
   11.4209   -0.0551    0.0000 H   0  0  0  0  0  0  0  0  0  0  0  0
   11.8529   -1.3707    0.0000 H   0  0  0  0  0  0  0  0  0  0  0  0
   11.8529   -0.5413    0.0000 H   0  0  0  0  0  0  0  0  0  0  0  0
   10.5574   -2.3276    0.0000 H   0  0  0  0  0  0  0  0  0  0  0  0
   11.3458   -2.0700    0.0000 H   0  0  0  0  0  0  0  0  0  0  0  0
    6.1426    0.9363    0.0000 H   0  0  0  0  0  0  0  0  0  0  0  0
    5.7441    1.6266    0.0000 H   0  0  0  0  0  0  0  0  0  0  0  0
    8.9962    0.6640    0.0000 H   0  0  0  0  0  0  0  0  0  0  0  0
    5.0646    2.0189    0.0000 H   0  0  0  0  0  0  0  0  0  0  0  0
    4.2675    2.0189    0.0000 H   0  0  0  0  0  0  0  0  0  0  0  0
    4.2675   -0.9309    0.0000 H   0  0  0  0  0  0  0  0  0  0  0  0
    5.0646   -0.9309    0.0000 H   0  0  0  0  0  0  0  0  0  0  0  0
    8.9962   -2.5760    0.0000 H   0  0  0  0  0  0  0  0  0  0  0  0
    7.5932   -1.7660    0.0000 H   0  0  0  0  0  0  0  0  0  0  0  0
    6.3981   -1.0760    0.0000 H   0  0  0  0  0  0  0  0  0  0  0  0
    2.9132    2.1986    0.0000 H   0  0  0  0  0  0  0  0  0  0  0  0
    2.9132   -1.1106    0.0000 H   0  0  0  0  0  0  0  0  0  0  0  0
    1.4643    1.3769    0.0000 H   0  0  0  0  0  0  0  0  0  0  0  0
    1.4643   -0.2889    0.0000 H   0  0  0  0  0  0  0  0  0  0  0  0
   12.9976    1.7634    0.0000 H   0  0  0  0  0  0  0  0  0  0  0  0
   12.6008    2.5453    0.0000 H   0  0  0  0  0  0  0  0  0  0  0  0
   11.8189    2.1486    0.0000 H   0  0  0  0  0  0  0  0  0  0  0  0
  1  5  1  0  0  0  0
  1 24  1  0  0  0  0
  2 24  2  0  0  0  0
  3 10  1  0  0  0  0
  3 13  1  0  0  0  0
  3 19  1  0  0  0  0
  4 17  1  0  0  0  0
  4 19  2  0  0  0  0
  5  6  1  0  0  0  0
  5  8  1  0  0  0  0
  5 26  1  0  0  0  0
  6  7  1  0  0  0  0
  6 27  1  0  0  0  0
  6 28  1  0  0  0  0
  7  9  1  0  0  0  0
  7 29  1  0  0  0  0
  7 30  1  0  0  0  0
  8  9  2  0  0  0  0
  8 11  1  0  0  0  0
  9 14  1  0  0  0  0
 10 12  1  0  0  0  0
 10 31  1  0  0  0  0
 10 32  1  0  0  0  0
 11 17  2  0  0  0  0
 11 33  1  0  0  0  0
 12 15  1  0  0  0  0
 12 34  1  0  0  0  0
 12 35  1  0  0  0  0
 13 16  1  0  0  0  0
 13 36  1  0  0  0  0
 13 37  1  0  0  0  0
 14 18  2  0  0  0  0
 14 38  1  0  0  0  0
 15 16  1  0  0  0  0
 15 20  2  0  0  0  0
 16 21  2  0  0  0  0
 17 18  1  0  0  0  0
 18 39  1  0  0  0  0
 19 40  1  0  0  0  0
 20 22  1  0  0  0  0
 20 41  1  0  0  0  0
 21 23  1  0  0  0  0
 21 42  1  0  0  0  0
 22 23  2  0  0  0  0
 22 43  1  0  0  0  0
 23 44  1  0  0  0  0
 24 25  1  0  0  0  0
 25 45  1  0  0  0  0
 25 46  1  0  0  0  0
 25 47  1  0  0  0  0
M  END
> <PUBCHEM_COMPOUND_CID>
44439404

> <PUBCHEM_COMPOUND_CANONICALIZED>
1

> <PUBCHEM_CACTVS_COMPLEXITY>
506

> <PUBCHEM_CACTVS_HBOND_ACCEPTOR>
3

> <PUBCHEM_CACTVS_HBOND_DONOR>
0

> <PUBCHEM_CACTVS_ROTATABLE_BOND>
4

> <PUBCHEM_CACTVS_SUBSKEYS>
AAADceB7MAAAAAAAAAAAAAAAAAAAAYAAAAA8YIAAAAAAAGCxQAAAHgAAAAAADBzhmAYzyIMABACoAiTTbACCAAEgAgAJiAAIbIgIJiKAuZmGMAhkwAGI6AewwKAOiAAAQAAQAAAQAACAACAAAIAADAAAAA==

> <PUBCHEM_IUPAC_OPENEYE_NAME>
[6-(3,4-dihydro-1H-isoquinolin-2-ylmethyleneamino)indan-1-yl] acetate

> <PUBCHEM_IUPAC_CAS_NAME>
acetic acid [6-(3,4-dihydro-1H-isoquinolin-2-ylmethylideneamino)-2,3-dihydro-1H-inden-1-yl] ester

> <PUBCHEM_IUPAC_NAME_MARKUP>
[6-(3,4-dihydro-1<I>H</I>-isoquinolin-2-ylmethylideneamino)-2,3-dihydro-1<I>H</I>-inden-1-yl] acetate

> <PUBCHEM_IUPAC_NAME>
[6-(3,4-dihydro-1H-isoquinolin-2-ylmethylideneamino)-2,3-dihydro-1H-inden-1-yl] acetate

> <PUBCHEM_IUPAC_SYSTEMATIC_NAME>
[6-(3,4-dihydro-1H-isoquinolin-2-ylmethylideneamino)-2,3-dihydro-1H-inden-1-yl] ethanoate

> <PUBCHEM_IUPAC_TRADITIONAL_NAME>
acetic acid [6-(3,4-dihydro-1H-isoquinolin-2-ylmethyleneamino)indan-1-yl] ester

> <PUBCHEM_IUPAC_INCHI>
InChI=1S/C21H22N2O2/c1-15(24)25-21-9-7-17-6-8-19(12-20(17)21)22-14-23-11-10-16-4-2-3-5-18(16)13-23/h2-6,8,12,14,21H,7,9-11,13H2,1H3

> <PUBCHEM_IUPAC_INCHIKEY>
NIBSKZAKNHPDAI-UHFFFAOYSA-N

> <PUBCHEM_XLOGP3_AA>
3.2

> <PUBCHEM_EXACT_MASS>
334.168127949

> <PUBCHEM_MOLECULAR_FORMULA>
C21H22N2O2

> <PUBCHEM_MOLECULAR_WEIGHT>
334.4

> <PUBCHEM_OPENEYE_CAN_SMILES>
CC(=O)OC1CCC2=C1C=C(C=C2)N=CN3CCC4=CC=CC=C4C3

> <PUBCHEM_OPENEYE_ISO_SMILES>
CC(=O)OC1CCC2=C1C=C(C=C2)N=CN3CCC4=CC=CC=C4C3

> <PUBCHEM_CACTVS_TPSA>
41.9

> <PUBCHEM_MONOISOTOPIC_WEIGHT>
334.168127949

> <PUBCHEM_TOTAL_CHARGE>
0

> <PUBCHEM_HEAVY_ATOM_COUNT>
25

> <PUBCHEM_ATOM_DEF_STEREO_COUNT>
0

> <PUBCHEM_ATOM_UDEF_STEREO_COUNT>
1

> <PUBCHEM_BOND_DEF_STEREO_COUNT>
0

> <PUBCHEM_BOND_UDEF_STEREO_COUNT>
0

> <PUBCHEM_ISOTOPIC_ATOM_COUNT>
0

> <PUBCHEM_COMPONENT_COUNT>
1

> <PUBCHEM_CACTVS_TAUTO_COUNT>
-1

> <PUBCHEM_COORDINATE_TYPE>
1
5
255

> <PUBCHEM_BONDANNOTATIONS>
5  1  3
11  17  8
14  18  8
15  16  8
15  20  8
16  21  8
17  18  8
20  22  8
21  23  8
22  23  8
8  11  8
8  9  8
9  14  8

$$$$
