127049866
  -OEChem-09292322052D

 59 62  0     0  0  0  0  0  0999 V2000
   10.7404   -5.3047    0.0000 S   0  0  0  0  0  0  0  0  0  0  0  0
    7.1962    3.5000    0.0000 O   0  0  0  0  0  0  0  0  0  0  0  0
    3.7320    2.5000    0.0000 O   0  0  0  0  0  0  0  0  0  0  0  0
    8.9282   -0.5000    0.0000 N   0  0  0  0  0  0  0  0  0  0  0  0
    8.9282   -2.5000    0.0000 N   0  0  0  0  0  0  0  0  0  0  0  0
    2.8660    4.0000    0.0000 N   0  0  0  0  0  0  0  0  0  0  0  0
    8.0622   -1.0000    0.0000 C   0  0  0  0  0  0  0  0  0  0  0  0
    9.7942   -1.0000    0.0000 C   0  0  0  0  0  0  0  0  0  0  0  0
    8.0622   -2.0000    0.0000 C   0  0  0  0  0  0  0  0  0  0  0  0
    9.7942   -2.0000    0.0000 C   0  0  0  0  0  0  0  0  0  0  0  0
    8.9282    0.5000    0.0000 C   0  0  0  0  0  0  0  0  0  0  0  0
    8.0622    1.0000    0.0000 C   0  0  0  0  0  0  0  0  0  0  0  0
    8.9282   -3.5000    0.0000 C   0  0  0  0  0  0  0  0  0  0  0  0
    8.0622    2.0000    0.0000 C   0  0  0  0  0  0  0  0  0  0  0  0
    9.7942   -4.0000    0.0000 C   0  0  0  0  0  0  0  0  0  0  0  0
    8.0622   -4.0000    0.0000 C   0  0  0  0  0  0  0  0  0  0  0  0
    7.1962    2.5000    0.0000 C   0  0  0  0  0  0  0  0  0  0  0  0
    9.7942   -5.0000    0.0000 C   0  0  0  0  0  0  0  0  0  0  0  0
   10.7404   -3.6953    0.0000 C   0  0  0  0  0  0  0  0  0  0  0  0
    8.0622   -5.0000    0.0000 C   0  0  0  0  0  0  0  0  0  0  0  0
    8.9282   -5.5000    0.0000 C   0  0  0  0  0  0  0  0  0  0  0  0
   11.3241   -4.5000    0.0000 C   0  0  0  0  0  0  0  0  0  0  0  0
    6.3301    4.0000    0.0000 C   0  0  0  0  0  0  0  0  0  0  0  0
    5.4641    3.5000    0.0000 C   0  0  0  0  0  0  0  0  0  0  0  0
    6.3301    5.0000    0.0000 C   0  0  0  0  0  0  0  0  0  0  0  0
    4.5981    4.0000    0.0000 C   0  0  0  0  0  0  0  0  0  0  0  0
    5.4641    5.5000    0.0000 C   0  0  0  0  0  0  0  0  0  0  0  0
    4.5981    5.0000    0.0000 C   0  0  0  0  0  0  0  0  0  0  0  0
    3.7320    3.5000    0.0000 C   0  0  0  0  0  0  0  0  0  0  0  0
    2.0000    3.5000    0.0000 C   0  0  0  0  0  0  0  0  0  0  0  0
    7.8501   -0.4174    0.0000 H   0  0  0  0  0  0  0  0  0  0  0  0
    7.4516   -1.1077    0.0000 H   0  0  0  0  0  0  0  0  0  0  0  0
   10.4048   -1.1077    0.0000 H   0  0  0  0  0  0  0  0  0  0  0  0
   10.0063   -0.4174    0.0000 H   0  0  0  0  0  0  0  0  0  0  0  0
    7.4516   -1.8923    0.0000 H   0  0  0  0  0  0  0  0  0  0  0  0
    7.8501   -2.5826    0.0000 H   0  0  0  0  0  0  0  0  0  0  0  0
   10.0063   -2.5826    0.0000 H   0  0  0  0  0  0  0  0  0  0  0  0
   10.4048   -1.8923    0.0000 H   0  0  0  0  0  0  0  0  0  0  0  0
    9.5388    0.3923    0.0000 H   0  0  0  0  0  0  0  0  0  0  0  0
    9.1403    1.0826    0.0000 H   0  0  0  0  0  0  0  0  0  0  0  0
    7.4516    1.1077    0.0000 H   0  0  0  0  0  0  0  0  0  0  0  0
    7.8501    0.4174    0.0000 H   0  0  0  0  0  0  0  0  0  0  0  0
    8.6728    1.8923    0.0000 H   0  0  0  0  0  0  0  0  0  0  0  0
    8.2742    2.5826    0.0000 H   0  0  0  0  0  0  0  0  0  0  0  0
    7.5252   -3.6900    0.0000 H   0  0  0  0  0  0  0  0  0  0  0  0
    6.5856    2.6077    0.0000 H   0  0  0  0  0  0  0  0  0  0  0  0
    6.9841    1.9174    0.0000 H   0  0  0  0  0  0  0  0  0  0  0  0
   10.9331   -3.1060    0.0000 H   0  0  0  0  0  0  0  0  0  0  0  0
    7.5252   -5.3100    0.0000 H   0  0  0  0  0  0  0  0  0  0  0  0
    8.9282   -6.1200    0.0000 H   0  0  0  0  0  0  0  0  0  0  0  0
   11.9441   -4.5000    0.0000 H   0  0  0  0  0  0  0  0  0  0  0  0
    5.4641    2.8800    0.0000 H   0  0  0  0  0  0  0  0  0  0  0  0
    6.8671    5.3100    0.0000 H   0  0  0  0  0  0  0  0  0  0  0  0
    5.4641    6.1200    0.0000 H   0  0  0  0  0  0  0  0  0  0  0  0
    4.0611    5.3100    0.0000 H   0  0  0  0  0  0  0  0  0  0  0  0
    2.8660    4.6200    0.0000 H   0  0  0  0  0  0  0  0  0  0  0  0
    1.6900    4.0369    0.0000 H   0  0  0  0  0  0  0  0  0  0  0  0
    1.4631    3.1900    0.0000 H   0  0  0  0  0  0  0  0  0  0  0  0
    2.3100    2.9631    0.0000 H   0  0  0  0  0  0  0  0  0  0  0  0
  1 18  1  0  0  0  0
  1 22  1  0  0  0  0
  2 17  1  0  0  0  0
  2 23  1  0  0  0  0
  3 29  2  0  0  0  0
  4  7  1  0  0  0  0
  4  8  1  0  0  0  0
  4 11  1  0  0  0  0
  5  9  1  0  0  0  0
  5 10  1  0  0  0  0
  5 13  1  0  0  0  0
  6 29  1  0  0  0  0
  6 30  1  0  0  0  0
  6 56  1  0  0  0  0
  7  9  1  0  0  0  0
  7 31  1  0  0  0  0
  7 32  1  0  0  0  0
  8 10  1  0  0  0  0
  8 33  1  0  0  0  0
  8 34  1  0  0  0  0
  9 35  1  0  0  0  0
  9 36  1  0  0  0  0
 10 37  1  0  0  0  0
 10 38  1  0  0  0  0
 11 12  1  0  0  0  0
 11 39  1  0  0  0  0
 11 40  1  0  0  0  0
 12 14  1  0  0  0  0
 12 41  1  0  0  0  0
 12 42  1  0  0  0  0
 13 15  2  0  0  0  0
 13 16  1  0  0  0  0
 14 17  1  0  0  0  0
 14 43  1  0  0  0  0
 14 44  1  0  0  0  0
 15 18  1  0  0  0  0
 15 19  1  0  0  0  0
 16 20  2  0  0  0  0
 16 45  1  0  0  0  0
 17 46  1  0  0  0  0
 17 47  1  0  0  0  0
 18 21  2  0  0  0  0
 19 22  2  0  0  0  0
 19 48  1  0  0  0  0
 20 21  1  0  0  0  0
 20 49  1  0  0  0  0
 21 50  1  0  0  0  0
 22 51  1  0  0  0  0
 23 24  1  0  0  0  0
 23 25  2  0  0  0  0
 24 26  2  0  0  0  0
 24 52  1  0  0  0  0
 25 27  1  0  0  0  0
 25 53  1  0  0  0  0
 26 28  1  0  0  0  0
 26 29  1  0  0  0  0
 27 28  2  0  0  0  0
 27 54  1  0  0  0  0
 28 55  1  0  0  0  0
 30 57  1  0  0  0  0
 30 58  1  0  0  0  0
 30 59  1  0  0  0  0
M  END
> <PUBCHEM_COMPOUND_CID>
127049866

> <PUBCHEM_COMPOUND_CANONICALIZED>
1

> <PUBCHEM_CACTVS_COMPLEXITY>
541

> <PUBCHEM_CACTVS_HBOND_ACCEPTOR>
5

> <PUBCHEM_CACTVS_HBOND_DONOR>
1

> <PUBCHEM_CACTVS_ROTATABLE_BOND>
8

> <PUBCHEM_CACTVS_SUBSKEYS>
AAADceB7MABAAAAAAAAAAAAAAAAAASAAAAA8YIAAAAAAAEgB9AAAHgQQAAAADAzl2Aayx8PABAiMAiVSUACDCIAlKhBIiJkObMgMZjLktZuWOSzkwhHo6Ye6yJCOAAABACAGAAAAAAIAQAwAAAAAAAAAAA==

> <PUBCHEM_IUPAC_OPENEYE_NAME>
3-[4-[4-(benzothiophen-4-yl)piperazin-1-yl]butoxy]-N-methyl-benzamide

> <PUBCHEM_IUPAC_CAS_NAME>
3-[4-[4-(1-benzothiophen-4-yl)-1-piperazinyl]butoxy]-N-methylbenzamide

> <PUBCHEM_IUPAC_NAME_MARKUP>
3-[4-[4-(1-benzothiophen-4-yl)piperazin-1-yl]butoxy]-<I>N</I>-methylbenzamide

> <PUBCHEM_IUPAC_NAME>
3-[4-[4-(1-benzothiophen-4-yl)piperazin-1-yl]butoxy]-N-methylbenzamide

> <PUBCHEM_IUPAC_SYSTEMATIC_NAME>
3-[4-[4-(1-benzothiophen-4-yl)piperazin-1-yl]butoxy]-N-methyl-benzamide

> <PUBCHEM_IUPAC_TRADITIONAL_NAME>
3-[4-[4-(benzothiophen-4-yl)piperazino]butoxy]-N-methyl-benzamide

> <PUBCHEM_IUPAC_INCHI>
InChI=1S/C24H29N3O2S/c1-25-24(28)19-6-4-7-20(18-19)29-16-3-2-11-26-12-14-27(15-13-26)22-8-5-9-23-21(22)10-17-30-23/h4-10,17-18H,2-3,11-16H2,1H3,(H,25,28)

> <PUBCHEM_IUPAC_INCHIKEY>
RYXYJLZLSOOSMR-UHFFFAOYSA-N

> <PUBCHEM_XLOGP3_AA>
4.5

> <PUBCHEM_EXACT_MASS>
423.19804835

> <PUBCHEM_MOLECULAR_FORMULA>
C24H29N3O2S

> <PUBCHEM_MOLECULAR_WEIGHT>
423.6

> <PUBCHEM_OPENEYE_CAN_SMILES>
CNC(=O)C1=CC(=CC=C1)OCCCCN2CCN(CC2)C3=C4C=CSC4=CC=C3

> <PUBCHEM_OPENEYE_ISO_SMILES>
CNC(=O)C1=CC(=CC=C1)OCCCCN2CCN(CC2)C3=C4C=CSC4=CC=C3

> <PUBCHEM_CACTVS_TPSA>
73

> <PUBCHEM_MONOISOTOPIC_WEIGHT>
423.19804835

> <PUBCHEM_TOTAL_CHARGE>
0

> <PUBCHEM_HEAVY_ATOM_COUNT>
30

> <PUBCHEM_ATOM_DEF_STEREO_COUNT>
0

> <PUBCHEM_ATOM_UDEF_STEREO_COUNT>
0

> <PUBCHEM_BOND_DEF_STEREO_COUNT>
0

> <PUBCHEM_BOND_UDEF_STEREO_COUNT>
0

> <PUBCHEM_ISOTOPIC_ATOM_COUNT>
0

> <PUBCHEM_COMPONENT_COUNT>
1

> <PUBCHEM_CACTVS_TAUTO_COUNT>
-1

> <PUBCHEM_COORDINATE_TYPE>
1
5
255

> <PUBCHEM_BONDANNOTATIONS>
1  18  8
1  22  8
13  15  8
13  16  8
15  18  8
15  19  8
16  20  8
18  21  8
19  22  8
20  21  8
23  24  8
23  25  8
24  26  8
25  27  8
26  28  8
27  28  8

$$$$
