11678080
  -OEChem-09292322492D

 71 76  0     1  0  0  0  0  0999 V2000
    6.4431    1.4262    0.0000 S   0  0  0  0  0  0  0  0  0  0  0  0
    8.9431    2.2922    0.0000 N   0  0  3  0  0  0  0  0  0  0  0  0
   13.8985    4.3112    0.0000 N   0  0  0  0  0  0  0  0  0  0  0  0
    4.9486    0.4556    0.0000 N   0  0  0  0  0  0  0  0  0  0  0  0
   14.8758    4.5229    0.0000 N   0  0  0  0  0  0  0  0  0  0  0  0
    6.3498   -0.3534    0.0000 N   0  0  0  0  0  0  0  0  0  0  0  0
    5.6067   -1.0226    0.0000 N   0  0  0  0  0  0  0  0  0  0  0  0
    2.6842   -3.3647    0.0000 N   0  0  0  0  0  0  0  0  0  0  0  0
    9.3770    3.1932    0.0000 C   0  0  0  0  0  0  0  0  0  0  0  0
    9.3770    1.3912    0.0000 C   0  0  0  0  0  0  0  0  0  0  0  0
   10.3519    3.4157    0.0000 C   0  0  0  0  0  0  0  0  0  0  0  0
   10.3519    1.1687    0.0000 C   0  0  0  0  0  0  0  0  0  0  0  0
   11.1337    2.7922    0.0000 C   0  0  0  0  0  0  0  0  0  0  0  0
   11.1337    1.7922    0.0000 C   0  0  0  0  0  0  0  0  0  0  0  0
    7.9431    2.2922    0.0000 C   0  0  0  0  0  0  0  0  0  0  0  0
   12.0277    3.3268    0.0000 C   0  0  0  0  0  0  0  0  0  0  0  0
   12.0277    1.2575    0.0000 C   0  0  0  0  0  0  0  0  0  0  0  0
   12.9337    2.8130    0.0000 C   0  0  0  0  0  0  0  0  0  0  0  0
    7.4431    1.4262    0.0000 C   0  0  0  0  0  0  0  0  0  0  0  0
   12.9337    1.7714    0.0000 C   0  0  0  0  0  0  0  0  0  0  0  0
   13.7978    3.3163    0.0000 C   0  0  0  0  0  0  0  0  0  0  0  0
   14.7129    2.9131    0.0000 C   0  0  0  0  0  0  0  0  0  0  0  0
    5.9431    0.5601    0.0000 C   0  0  0  0  0  0  0  0  0  0  0  0
   15.3792    3.6588    0.0000 C   0  0  0  0  0  0  0  0  0  0  0  0
   13.1528    4.9775    0.0000 C   0  0  0  0  0  0  0  0  0  0  0  0
    4.7406   -0.5225    0.0000 C   0  0  0  0  0  0  0  0  0  0  0  0
    3.8271   -0.9293    0.0000 C   0  0  0  0  0  0  0  0  0  0  0  0
   16.3741    3.5581    0.0000 C   0  0  0  0  0  0  0  0  0  0  0  0
    3.7226   -1.9238    0.0000 C   0  0  0  0  0  0  0  0  0  0  0  0
    4.2794    1.1988    0.0000 C   0  0  0  0  0  0  0  0  0  0  0  0
    2.8090   -2.3305    0.0000 C   0  0  0  0  0  0  0  0  0  0  0  0
    3.0181   -0.3415    0.0000 C   0  0  0  0  0  0  0  0  0  0  0  0
    4.5746   -2.5230    0.0000 C   0  0  0  0  0  0  0  0  0  0  0  0
    2.0000   -1.7428    0.0000 C   0  0  0  0  0  0  0  0  0  0  0  0
    2.1045   -0.7482    0.0000 C   0  0  0  0  0  0  0  0  0  0  0  0
    4.4737   -3.5597    0.0000 C   0  0  0  0  0  0  0  0  0  0  0  0
    3.5221   -3.9834    0.0000 C   0  0  0  0  0  0  0  0  0  0  0  0
    3.4138   -4.9775    0.0000 C   0  0  0  0  0  0  0  0  0  0  0  0
    9.3770    3.8132    0.0000 H   0  0  0  0  0  0  0  0  0  0  0  0
    8.7725    3.3311    0.0000 H   0  0  0  0  0  0  0  0  0  0  0  0
    8.7725    1.2532    0.0000 H   0  0  0  0  0  0  0  0  0  0  0  0
    9.3770    0.7712    0.0000 H   0  0  0  0  0  0  0  0  0  0  0  0
   10.8366    3.8022    0.0000 H   0  0  0  0  0  0  0  0  0  0  0  0
   10.0829    3.9743    0.0000 H   0  0  0  0  0  0  0  0  0  0  0  0
   10.0829    0.6101    0.0000 H   0  0  0  0  0  0  0  0  0  0  0  0
   10.8366    0.7821    0.0000 H   0  0  0  0  0  0  0  0  0  0  0  0
    8.0507    2.9028    0.0000 H   0  0  0  0  0  0  0  0  0  0  0  0
    7.3605    2.5042    0.0000 H   0  0  0  0  0  0  0  0  0  0  0  0
   12.0205    3.9468    0.0000 H   0  0  0  0  0  0  0  0  0  0  0  0
   12.0205    0.6376    0.0000 H   0  0  0  0  0  0  0  0  0  0  0  0
    7.3354    0.8156    0.0000 H   0  0  0  0  0  0  0  0  0  0  0  0
    8.0257    1.2141    0.0000 H   0  0  0  0  0  0  0  0  0  0  0  0
   13.4695    1.4593    0.0000 H   0  0  0  0  0  0  0  0  0  0  0  0
   14.8442    2.3072    0.0000 H   0  0  0  0  0  0  0  0  0  0  0  0
   13.5659    5.4398    0.0000 H   0  0  0  0  0  0  0  0  0  0  0  0
   12.6904    5.3906    0.0000 H   0  0  0  0  0  0  0  0  0  0  0  0
   12.7397    4.5152    0.0000 H   0  0  0  0  0  0  0  0  0  0  0  0
   16.3117    2.9413    0.0000 H   0  0  0  0  0  0  0  0  0  0  0  0
   16.9909    3.4957    0.0000 H   0  0  0  0  0  0  0  0  0  0  0  0
   16.4365    4.1750    0.0000 H   0  0  0  0  0  0  0  0  0  0  0  0
    4.7402    1.6136    0.0000 H   0  0  0  0  0  0  0  0  0  0  0  0
    3.8646    1.6595    0.0000 H   0  0  0  0  0  0  0  0  0  0  0  0
    3.8187    0.7839    0.0000 H   0  0  0  0  0  0  0  0  0  0  0  0
    3.0829    0.2751    0.0000 H   0  0  0  0  0  0  0  0  0  0  0  0
    5.1380   -2.2643    0.0000 H   0  0  0  0  0  0  0  0  0  0  0  0
    1.4336   -1.9949    0.0000 H   0  0  0  0  0  0  0  0  0  0  0  0
    1.6029   -0.3838    0.0000 H   0  0  0  0  0  0  0  0  0  0  0  0
    4.9767   -3.9222    0.0000 H   0  0  0  0  0  0  0  0  0  0  0  0
    2.7974   -4.9103    0.0000 H   0  0  0  0  0  0  0  0  0  0  0  0
    3.3466   -5.5939    0.0000 H   0  0  0  0  0  0  0  0  0  0  0  0
    4.0301   -5.0447    0.0000 H   0  0  0  0  0  0  0  0  0  0  0  0
  1 19  1  0  0  0  0
  1 23  1  0  0  0  0
  2  9  1  0  0  0  0
  2 10  1  0  0  0  0
  2 15  1  0  0  0  0
  3  5  1  0  0  0  0
  3 21  1  0  0  0  0
  3 25  1  0  0  0  0
  4 23  1  0  0  0  0
  4 26  1  0  0  0  0
  4 30  1  0  0  0  0
  5 24  2  0  0  0  0
  6  7  1  0  0  0  0
  6 23  2  0  0  0  0
  7 26  2  0  0  0  0
  8 31  1  0  0  0  0
  8 37  2  0  0  0  0
  9 11  1  0  0  0  0
  9 39  1  0  0  0  0
  9 40  1  0  0  0  0
 10 12  1  0  0  0  0
 10 41  1  0  0  0  0
 10 42  1  0  0  0  0
 11 13  1  0  0  0  0
 11 43  1  0  0  0  0
 11 44  1  0  0  0  0
 12 14  1  0  0  0  0
 12 45  1  0  0  0  0
 12 46  1  0  0  0  0
 13 14  2  0  0  0  0
 13 16  1  0  0  0  0
 14 17  1  0  0  0  0
 15 19  1  0  0  0  0
 15 47  1  0  0  0  0
 15 48  1  0  0  0  0
 16 18  2  0  0  0  0
 16 49  1  0  0  0  0
 17 20  2  0  0  0  0
 17 50  1  0  0  0  0
 18 20  1  0  0  0  0
 18 21  1  0  0  0  0
 19 51  1  0  0  0  0
 19 52  1  0  0  0  0
 20 53  1  0  0  0  0
 21 22  2  0  0  0  0
 22 24  1  0  0  0  0
 22 54  1  0  0  0  0
 24 28  1  0  0  0  0
 25 55  1  0  0  0  0
 25 56  1  0  0  0  0
 25 57  1  0  0  0  0
 26 27  1  0  0  0  0
 27 29  2  0  0  0  0
 27 32  1  0  0  0  0
 28 58  1  0  0  0  0
 28 59  1  0  0  0  0
 28 60  1  0  0  0  0
 29 31  1  0  0  0  0
 29 33  1  0  0  0  0
 30 61  1  0  0  0  0
 30 62  1  0  0  0  0
 30 63  1  0  0  0  0
 31 34  2  0  0  0  0
 32 35  2  0  0  0  0
 32 64  1  0  0  0  0
 33 36  2  0  0  0  0
 33 65  1  0  0  0  0
 34 35  1  0  0  0  0
 34 66  1  0  0  0  0
 35 67  1  0  0  0  0
 36 37  1  0  0  0  0
 36 68  1  0  0  0  0
 37 38  1  0  0  0  0
 38 69  1  0  0  0  0
 38 70  1  0  0  0  0
 38 71  1  0  0  0  0
M  END
> <PUBCHEM_COMPOUND_CID>
11678080

> <PUBCHEM_COMPOUND_CANONICALIZED>
1

> <PUBCHEM_CACTVS_COMPLEXITY>
771

> <PUBCHEM_CACTVS_HBOND_ACCEPTOR>
6

> <PUBCHEM_CACTVS_HBOND_DONOR>
0

> <PUBCHEM_CACTVS_ROTATABLE_BOND>
6

> <PUBCHEM_CACTVS_SUBSKEYS>
AAADcfB7gABAAAAAAAAAAAAAAAAAAWLAAAA8YIAABYAAAACx/gAAHAQIAAAADAjFXwSz0PcMEAiiAyZiZACS1CthgrAd2CA4ZJiIKOLA2dGEpAhgiALIyAcQgMAOwAACQAASAACAAASAACQAAAAAAAAAAA==

> <PUBCHEM_IUPAC_OPENEYE_NAME>
7-(2,5-dimethylpyrazol-3-yl)-3-[2-[[4-methyl-5-(2-methyl-5-quinolyl)-1,2,4-triazol-3-yl]sulfanyl]ethyl]-1,2,4,5-tetrahydro-3-benzazepine

> <PUBCHEM_IUPAC_CAS_NAME>
7-(2,5-dimethyl-3-pyrazolyl)-3-[2-[[4-methyl-5-(2-methyl-5-quinolinyl)-1,2,4-triazol-3-yl]thio]ethyl]-1,2,4,5-tetrahydro-3-benzazepine

> <PUBCHEM_IUPAC_NAME_MARKUP>
7-(2,5-dimethylpyrazol-3-yl)-3-[2-[[4-methyl-5-(2-methylquinolin-5-yl)-1,2,4-triazol-3-yl]sulfanyl]ethyl]-1,2,4,5-tetrahydro-3-benzazepine

> <PUBCHEM_IUPAC_NAME>
7-(2,5-dimethylpyrazol-3-yl)-3-[2-[[4-methyl-5-(2-methylquinolin-5-yl)-1,2,4-triazol-3-yl]sulfanyl]ethyl]-1,2,4,5-tetrahydro-3-benzazepine

> <PUBCHEM_IUPAC_SYSTEMATIC_NAME>
7-(2,5-dimethylpyrazol-3-yl)-3-[2-[[4-methyl-5-(2-methylquinolin-5-yl)-1,2,4-triazol-3-yl]sulfanyl]ethyl]-1,2,4,5-tetrahydro-3-benzazepine

> <PUBCHEM_IUPAC_TRADITIONAL_NAME>
7-(2,5-dimethylpyrazol-3-yl)-3-[2-[[4-methyl-5-(2-methyl-5-quinolyl)-1,2,4-triazol-3-yl]thio]ethyl]-1,2,4,5-tetrahydro-3-benzazepine

> <PUBCHEM_IUPAC_INCHI>
InChI=1S/C30H33N7S/c1-20-8-11-25-26(6-5-7-27(25)31-20)29-32-33-30(35(29)3)38-17-16-37-14-12-22-9-10-24(19-23(22)13-15-37)28-18-21(2)34-36(28)4/h5-11,18-19H,12-17H2,1-4H3

> <PUBCHEM_IUPAC_INCHIKEY>
RWYXCRGPSKEBSD-UHFFFAOYSA-N

> <PUBCHEM_XLOGP3_AA>
5

> <PUBCHEM_EXACT_MASS>
523.25181526

> <PUBCHEM_MOLECULAR_FORMULA>
C30H33N7S

> <PUBCHEM_MOLECULAR_WEIGHT>
523.7

> <PUBCHEM_OPENEYE_CAN_SMILES>
CC1=NC2=CC=CC(=C2C=C1)C3=NN=C(N3C)SCCN4CCC5=C(CC4)C=C(C=C5)C6=CC(=NN6C)C

> <PUBCHEM_OPENEYE_ISO_SMILES>
CC1=NC2=CC=CC(=C2C=C1)C3=NN=C(N3C)SCCN4CCC5=C(CC4)C=C(C=C5)C6=CC(=NN6C)C

> <PUBCHEM_CACTVS_TPSA>
90

> <PUBCHEM_MONOISOTOPIC_WEIGHT>
523.25181526

> <PUBCHEM_TOTAL_CHARGE>
0

> <PUBCHEM_HEAVY_ATOM_COUNT>
38

> <PUBCHEM_ATOM_DEF_STEREO_COUNT>
0

> <PUBCHEM_ATOM_UDEF_STEREO_COUNT>
0

> <PUBCHEM_BOND_DEF_STEREO_COUNT>
0

> <PUBCHEM_BOND_UDEF_STEREO_COUNT>
0

> <PUBCHEM_ISOTOPIC_ATOM_COUNT>
0

> <PUBCHEM_COMPONENT_COUNT>
1

> <PUBCHEM_CACTVS_TAUTO_COUNT>
-1

> <PUBCHEM_COORDINATE_TYPE>
1
5
255

> <PUBCHEM_BONDANNOTATIONS>
13  14  8
13  16  8
14  17  8
16  18  8
17  20  8
18  20  8
21  22  8
22  24  8
27  29  8
27  32  8
29  31  8
29  33  8
3  21  8
3  5  8
31  34  8
32  35  8
33  36  8
34  35  8
36  37  8
4  23  8
4  26  8
5  24  8
6  23  8
6  7  8
7  26  8
8  31  8
8  37  8

$$$$
