44347787
  -OEChem-09292322512D

 49 52  0     0  0  0  0  0  0999 V2000
    6.3981    2.2327    0.0000 O   0  0  0  0  0  0  0  0  0  0  0  0
    4.6660    0.2327    0.0000 N   0  0  0  0  0  0  0  0  0  0  0  0
    4.6660    2.2327    0.0000 C   0  0  0  0  0  0  0  0  0  0  0  0
    3.8000    1.7327    0.0000 C   0  0  0  0  0  0  0  0  0  0  0  0
    5.5321    1.7327    0.0000 C   0  0  0  0  0  0  0  0  0  0  0  0
    3.8000    0.7327    0.0000 C   0  0  0  0  0  0  0  0  0  0  0  0
    5.5321    0.7327    0.0000 C   0  0  0  0  0  0  0  0  0  0  0  0
    3.8000    2.7327    0.0000 C   0  0  0  0  0  0  0  0  0  0  0  0
    5.5321    2.7327    0.0000 C   0  0  0  0  0  0  0  0  0  0  0  0
    5.5321    3.7327    0.0000 C   0  0  0  0  0  0  0  0  0  0  0  0
    3.8000    3.7327    0.0000 C   0  0  0  0  0  0  0  0  0  0  0  0
    4.6660    4.2327    0.0000 C   0  0  0  0  0  0  0  0  0  0  0  0
    4.6660   -0.7673    0.0000 C   0  0  0  0  0  0  0  0  0  0  0  0
    2.9061    2.1980    0.0000 C   0  0  0  0  0  0  0  0  0  0  0  0
    2.9061    4.2673    0.0000 C   0  0  0  0  0  0  0  0  0  0  0  0
    5.5321   -1.2673    0.0000 C   0  0  0  0  0  0  0  0  0  0  0  0
    2.0000    2.7118    0.0000 C   0  0  0  0  0  0  0  0  0  0  0  0
    2.0000    3.7535    0.0000 C   0  0  0  0  0  0  0  0  0  0  0  0
    5.5321   -2.2673    0.0000 C   0  0  0  0  0  0  0  0  0  0  0  0
    4.6660   -2.7673    0.0000 C   0  0  0  0  0  0  0  0  0  0  0  0
    6.3981   -2.7673    0.0000 C   0  0  0  0  0  0  0  0  0  0  0  0
    4.6660   -3.7673    0.0000 C   0  0  0  0  0  0  0  0  0  0  0  0
    6.3981   -3.7673    0.0000 C   0  0  0  0  0  0  0  0  0  0  0  0
    5.5321   -4.2673    0.0000 C   0  0  0  0  0  0  0  0  0  0  0  0
    3.5880    2.3153    0.0000 H   0  0  0  0  0  0  0  0  0  0  0  0
    3.1894    1.6250    0.0000 H   0  0  0  0  0  0  0  0  0  0  0  0
    6.1426    1.6250    0.0000 H   0  0  0  0  0  0  0  0  0  0  0  0
    5.7441    2.3153    0.0000 H   0  0  0  0  0  0  0  0  0  0  0  0
    3.1894    0.8403    0.0000 H   0  0  0  0  0  0  0  0  0  0  0  0
    3.5880    0.1501    0.0000 H   0  0  0  0  0  0  0  0  0  0  0  0
    5.7441    0.1501    0.0000 H   0  0  0  0  0  0  0  0  0  0  0  0
    6.1426    0.8403    0.0000 H   0  0  0  0  0  0  0  0  0  0  0  0
    6.1426    3.6250    0.0000 H   0  0  0  0  0  0  0  0  0  0  0  0
    5.7441    4.3153    0.0000 H   0  0  0  0  0  0  0  0  0  0  0  0
    5.0646    4.7076    0.0000 H   0  0  0  0  0  0  0  0  0  0  0  0
    4.2675    4.7076    0.0000 H   0  0  0  0  0  0  0  0  0  0  0  0
    4.0555   -0.6597    0.0000 H   0  0  0  0  0  0  0  0  0  0  0  0
    4.4540   -1.3499    0.0000 H   0  0  0  0  0  0  0  0  0  0  0  0
    2.9132    1.5780    0.0000 H   0  0  0  0  0  0  0  0  0  0  0  0
    2.9132    4.8873    0.0000 H   0  0  0  0  0  0  0  0  0  0  0  0
    6.1426   -1.3750    0.0000 H   0  0  0  0  0  0  0  0  0  0  0  0
    5.7441   -0.6847    0.0000 H   0  0  0  0  0  0  0  0  0  0  0  0
    1.4643    2.3998    0.0000 H   0  0  0  0  0  0  0  0  0  0  0  0
    1.4643    4.0656    0.0000 H   0  0  0  0  0  0  0  0  0  0  0  0
    4.1291   -2.4573    0.0000 H   0  0  0  0  0  0  0  0  0  0  0  0
    6.9350   -2.4573    0.0000 H   0  0  0  0  0  0  0  0  0  0  0  0
    4.1291   -4.0773    0.0000 H   0  0  0  0  0  0  0  0  0  0  0  0
    6.9350   -4.0773    0.0000 H   0  0  0  0  0  0  0  0  0  0  0  0
    5.5321   -4.8873    0.0000 H   0  0  0  0  0  0  0  0  0  0  0  0
  1  9  2  0  0  0  0
  2  6  1  0  0  0  0
  2  7  1  0  0  0  0
  2 13  1  0  0  0  0
  3  4  1  0  0  0  0
  3  5  1  0  0  0  0
  3  8  1  0  0  0  0
  3  9  1  0  0  0  0
  4  6  1  0  0  0  0
  4 25  1  0  0  0  0
  4 26  1  0  0  0  0
  5  7  1  0  0  0  0
  5 27  1  0  0  0  0
  5 28  1  0  0  0  0
  6 29  1  0  0  0  0
  6 30  1  0  0  0  0
  7 31  1  0  0  0  0
  7 32  1  0  0  0  0
  8 11  1  0  0  0  0
  8 14  2  0  0  0  0
  9 10  1  0  0  0  0
 10 12  1  0  0  0  0
 10 33  1  0  0  0  0
 10 34  1  0  0  0  0
 11 12  1  0  0  0  0
 11 15  2  0  0  0  0
 12 35  1  0  0  0  0
 12 36  1  0  0  0  0
 13 16  1  0  0  0  0
 13 37  1  0  0  0  0
 13 38  1  0  0  0  0
 14 17  1  0  0  0  0
 14 39  1  0  0  0  0
 15 18  1  0  0  0  0
 15 40  1  0  0  0  0
 16 19  1  0  0  0  0
 16 41  1  0  0  0  0
 16 42  1  0  0  0  0
 17 18  2  0  0  0  0
 17 43  1  0  0  0  0
 18 44  1  0  0  0  0
 19 20  2  0  0  0  0
 19 21  1  0  0  0  0
 20 22  1  0  0  0  0
 20 45  1  0  0  0  0
 21 23  2  0  0  0  0
 21 46  1  0  0  0  0
 22 24  2  0  0  0  0
 22 47  1  0  0  0  0
 23 24  1  0  0  0  0
 23 48  1  0  0  0  0
 24 49  1  0  0  0  0
M  END
> <PUBCHEM_COMPOUND_CID>
44347787

> <PUBCHEM_COMPOUND_CANONICALIZED>
1

> <PUBCHEM_CACTVS_COMPLEXITY>
431

> <PUBCHEM_CACTVS_HBOND_ACCEPTOR>
2

> <PUBCHEM_CACTVS_HBOND_DONOR>
0

> <PUBCHEM_CACTVS_ROTATABLE_BOND>
3

> <PUBCHEM_CACTVS_SUBSKEYS>
AAADceB6IAAAAAAAAAAAAAAAAAAAAAAAAAA8YMEAAAAAAADBQAAAHgAAAAAADgTBmAQwAIMAAACIAqBSAAACAAAgAAAIiAEIAIgIIDKAlRGEIAAggACIiAcciMCPgAAAAAAQAAAAAAQAACAAAAAAAAAAAA==

> <PUBCHEM_IUPAC_OPENEYE_NAME>
1-(2-phenylethyl)spiro[piperidine-4,1'-tetralin]-2'-one

> <PUBCHEM_IUPAC_CAS_NAME>
1'-(2-phenylethyl)-2-spiro[3,4-dihydronaphthalene-1,4'-piperidine]one

> <PUBCHEM_IUPAC_NAME_MARKUP>
1&apos;-(2-phenylethyl)spiro[3,4-dihydronaphthalene-1,4&apos;-piperidine]-2-one

> <PUBCHEM_IUPAC_NAME>
1'-(2-phenylethyl)spiro[3,4-dihydronaphthalene-1,4'-piperidine]-2-one

> <PUBCHEM_IUPAC_SYSTEMATIC_NAME>
1'-(2-phenylethyl)spiro[3,4-dihydronaphthalene-1,4'-piperidine]-2-one

> <PUBCHEM_IUPAC_TRADITIONAL_NAME>
1-phenethylspiro[piperidine-4,1'-tetralin]-2'-one

> <PUBCHEM_IUPAC_INCHI>
InChI=1S/C22H25NO/c24-21-11-10-19-8-4-5-9-20(19)22(21)13-16-23(17-14-22)15-12-18-6-2-1-3-7-18/h1-9H,10-17H2

> <PUBCHEM_IUPAC_INCHIKEY>
UJUUXTLMDOWTHO-UHFFFAOYSA-N

> <PUBCHEM_XLOGP3_AA>
3.9

> <PUBCHEM_EXACT_MASS>
319.193614421

> <PUBCHEM_MOLECULAR_FORMULA>
C22H25NO

> <PUBCHEM_MOLECULAR_WEIGHT>
319.4

> <PUBCHEM_OPENEYE_CAN_SMILES>
C1CC(=O)C2(CCN(CC2)CCC3=CC=CC=C3)C4=CC=CC=C41

> <PUBCHEM_OPENEYE_ISO_SMILES>
C1CC(=O)C2(CCN(CC2)CCC3=CC=CC=C3)C4=CC=CC=C41

> <PUBCHEM_CACTVS_TPSA>
20.3

> <PUBCHEM_MONOISOTOPIC_WEIGHT>
319.193614421

> <PUBCHEM_TOTAL_CHARGE>
0

> <PUBCHEM_HEAVY_ATOM_COUNT>
24

> <PUBCHEM_ATOM_DEF_STEREO_COUNT>
0

> <PUBCHEM_ATOM_UDEF_STEREO_COUNT>
0

> <PUBCHEM_BOND_DEF_STEREO_COUNT>
0

> <PUBCHEM_BOND_UDEF_STEREO_COUNT>
0

> <PUBCHEM_ISOTOPIC_ATOM_COUNT>
0

> <PUBCHEM_COMPONENT_COUNT>
1

> <PUBCHEM_CACTVS_TAUTO_COUNT>
-1

> <PUBCHEM_COORDINATE_TYPE>
1
5
255

> <PUBCHEM_BONDANNOTATIONS>
11  15  8
14  17  8
15  18  8
17  18  8
19  20  8
19  21  8
20  22  8
21  23  8
22  24  8
23  24  8
8  11  8
8  14  8

$$$$
