164916973
  -OEChem-09292322452D

 42 44  0     0  0  0  0  0  0999 V2000
    4.5684    2.5194    0.0000 O   0  0  0  0  0  0  0  0  0  0  0  0
    5.4344    1.0194    0.0000 N   0  0  0  0  0  0  0  0  0  0  0  0
    4.9344   -0.5194    0.0000 C   0  0  0  0  0  0  0  0  0  0  0  0
    5.9344   -0.5194    0.0000 C   0  0  0  0  0  0  0  0  0  0  0  0
    4.6254    0.4316    0.0000 C   0  0  0  0  0  0  0  0  0  0  0  0
    6.2434    0.4316    0.0000 C   0  0  0  0  0  0  0  0  0  0  0  0
    4.9344   -1.5194    0.0000 C   0  0  0  0  0  0  0  0  0  0  0  0
    3.9563   -0.3114    0.0000 C   0  0  0  0  0  0  0  0  0  0  0  0
    5.4344    2.0194    0.0000 C   0  0  0  0  0  0  0  0  0  0  0  0
    4.0684   -2.0194    0.0000 C   0  0  0  0  0  0  0  0  0  0  0  0
    3.2872   -1.0547    0.0000 C   0  0  0  0  0  0  0  0  0  0  0  0
    5.8005   -2.0194    0.0000 C   0  0  0  0  0  0  0  0  0  0  0  0
    3.6473    0.6395    0.0000 C   0  0  0  0  0  0  0  0  0  0  0  0
    6.3005    2.5194    0.0000 C   0  0  0  0  0  0  0  0  0  0  0  0
    4.0684   -3.0194    0.0000 C   0  0  0  0  0  0  0  0  0  0  0  0
    2.3090   -0.8467    0.0000 C   0  0  0  0  0  0  0  0  0  0  0  0
    5.8005   -3.0194    0.0000 C   0  0  0  0  0  0  0  0  0  0  0  0
    2.6691    0.8475    0.0000 C   0  0  0  0  0  0  0  0  0  0  0  0
    4.9344   -3.5194    0.0000 C   0  0  0  0  0  0  0  0  0  0  0  0
    2.0000    0.1044    0.0000 C   0  0  0  0  0  0  0  0  0  0  0  0
    6.3005    3.5194    0.0000 C   0  0  0  0  0  0  0  0  0  0  0  0
    5.8696   -1.1360    0.0000 H   0  0  0  0  0  0  0  0  0  0  0  0
    6.5409   -0.6483    0.0000 H   0  0  0  0  0  0  0  0  0  0  0  0
    4.3154    0.9686    0.0000 H   0  0  0  0  0  0  0  0  0  0  0  0
    4.0590    0.1795    0.0000 H   0  0  0  0  0  0  0  0  0  0  0  0
    6.8098    0.1795    0.0000 H   0  0  0  0  0  0  0  0  0  0  0  0
    6.5534    0.9686    0.0000 H   0  0  0  0  0  0  0  0  0  0  0  0
    3.5315   -1.7094    0.0000 H   0  0  0  0  0  0  0  0  0  0  0  0
    3.4788   -1.6443    0.0000 H   0  0  0  0  0  0  0  0  0  0  0  0
    6.3374   -1.7094    0.0000 H   0  0  0  0  0  0  0  0  0  0  0  0
    4.0621    1.1003    0.0000 H   0  0  0  0  0  0  0  0  0  0  0  0
    6.5125    1.9368    0.0000 H   0  0  0  0  0  0  0  0  0  0  0  0
    6.9110    2.6271    0.0000 H   0  0  0  0  0  0  0  0  0  0  0  0
    3.5315   -3.3294    0.0000 H   0  0  0  0  0  0  0  0  0  0  0  0
    1.8941   -1.3075    0.0000 H   0  0  0  0  0  0  0  0  0  0  0  0
    6.3374   -3.3294    0.0000 H   0  0  0  0  0  0  0  0  0  0  0  0
    2.4775    1.4371    0.0000 H   0  0  0  0  0  0  0  0  0  0  0  0
    4.9344   -4.1394    0.0000 H   0  0  0  0  0  0  0  0  0  0  0  0
    1.3936    0.2333    0.0000 H   0  0  0  0  0  0  0  0  0  0  0  0
    6.9204    3.5194    0.0000 H   0  0  0  0  0  0  0  0  0  0  0  0
    6.3005    4.1394    0.0000 H   0  0  0  0  0  0  0  0  0  0  0  0
    5.6805    3.5194    0.0000 H   0  0  0  0  0  0  0  0  0  0  0  0
  1  9  2  0  0  0  0
  2  5  1  0  0  0  0
  2  6  1  0  0  0  0
  2  9  1  0  0  0  0
  3  4  1  0  0  0  0
  3  5  1  0  0  0  0
  3  7  1  0  0  0  0
  3  8  1  0  0  0  0
  4  6  1  0  0  0  0
  4 22  1  0  0  0  0
  4 23  1  0  0  0  0
  5 24  1  0  0  0  0
  5 25  1  0  0  0  0
  6 26  1  0  0  0  0
  6 27  1  0  0  0  0
  7 10  2  0  0  0  0
  7 12  1  0  0  0  0
  8 11  2  0  0  0  0
  8 13  1  0  0  0  0
  9 14  1  0  0  0  0
 10 15  1  0  0  0  0
 10 28  1  0  0  0  0
 11 16  1  0  0  0  0
 11 29  1  0  0  0  0
 12 17  2  0  0  0  0
 12 30  1  0  0  0  0
 13 18  2  0  0  0  0
 13 31  1  0  0  0  0
 14 21  1  0  0  0  0
 14 32  1  0  0  0  0
 14 33  1  0  0  0  0
 15 19  2  0  0  0  0
 15 34  1  0  0  0  0
 16 20  2  0  0  0  0
 16 35  1  0  0  0  0
 17 19  1  0  0  0  0
 17 36  1  0  0  0  0
 18 20  1  0  0  0  0
 18 37  1  0  0  0  0
 19 38  1  0  0  0  0
 20 39  1  0  0  0  0
 21 40  1  0  0  0  0
 21 41  1  0  0  0  0
 21 42  1  0  0  0  0
M  END
> <PUBCHEM_COMPOUND_CID>
164916973

> <PUBCHEM_COMPOUND_CANONICALIZED>
1

> <PUBCHEM_CACTVS_COMPLEXITY>
335

> <PUBCHEM_CACTVS_HBOND_ACCEPTOR>
1

> <PUBCHEM_CACTVS_HBOND_DONOR>
0

> <PUBCHEM_CACTVS_ROTATABLE_BOND>
3

> <PUBCHEM_CACTVS_SUBSKEYS>
AAADceB6IAAAAAAAAAAAAAAAAAAAAWAAAAAwYAAAAAAAAAABQAAAHgAAAAAADgDBmAQyAIMAAACIAiFSEAACAAAgAAAIiAEIAIgIICKAkRGEIAAghgCIiAcQgMAPgAAAAAAAAAAAAAAAAAAAAAAAAAAAAA==

> <PUBCHEM_IUPAC_OPENEYE_NAME>
1-(3,3-diphenylpyrrolidin-1-yl)propan-1-one

> <PUBCHEM_IUPAC_CAS_NAME>
1-(3,3-diphenyl-1-pyrrolidinyl)-1-propanone

> <PUBCHEM_IUPAC_NAME_MARKUP>
1-(3,3-diphenylpyrrolidin-1-yl)propan-1-one

> <PUBCHEM_IUPAC_NAME>
1-(3,3-diphenylpyrrolidin-1-yl)propan-1-one

> <PUBCHEM_IUPAC_SYSTEMATIC_NAME>
1-(3,3-diphenylpyrrolidin-1-yl)propan-1-one

> <PUBCHEM_IUPAC_TRADITIONAL_NAME>
1-(3,3-diphenylpyrrolidino)propan-1-one

> <PUBCHEM_IUPAC_INCHI>
InChI=1S/C19H21NO/c1-2-18(21)20-14-13-19(15-20,16-9-5-3-6-10-16)17-11-7-4-8-12-17/h3-12H,2,13-15H2,1H3

> <PUBCHEM_IUPAC_INCHIKEY>
FAZLAFLZRGLEFK-UHFFFAOYSA-N

> <PUBCHEM_XLOGP3_AA>
3.7

> <PUBCHEM_EXACT_MASS>
279.162314293

> <PUBCHEM_MOLECULAR_FORMULA>
C19H21NO

> <PUBCHEM_MOLECULAR_WEIGHT>
279.4

> <PUBCHEM_OPENEYE_CAN_SMILES>
CCC(=O)N1CCC(C1)(C2=CC=CC=C2)C3=CC=CC=C3

> <PUBCHEM_OPENEYE_ISO_SMILES>
CCC(=O)N1CCC(C1)(C2=CC=CC=C2)C3=CC=CC=C3

> <PUBCHEM_CACTVS_TPSA>
20.3

> <PUBCHEM_MONOISOTOPIC_WEIGHT>
279.162314293

> <PUBCHEM_TOTAL_CHARGE>
0

> <PUBCHEM_HEAVY_ATOM_COUNT>
21

> <PUBCHEM_ATOM_DEF_STEREO_COUNT>
0

> <PUBCHEM_ATOM_UDEF_STEREO_COUNT>
0

> <PUBCHEM_BOND_DEF_STEREO_COUNT>
0

> <PUBCHEM_BOND_UDEF_STEREO_COUNT>
0

> <PUBCHEM_ISOTOPIC_ATOM_COUNT>
0

> <PUBCHEM_COMPONENT_COUNT>
1

> <PUBCHEM_CACTVS_TAUTO_COUNT>
-1

> <PUBCHEM_COORDINATE_TYPE>
1
5
255

> <PUBCHEM_BONDANNOTATIONS>
10  15  8
11  16  8
12  17  8
13  18  8
15  19  8
16  20  8
17  19  8
18  20  8
7  10  8
7  12  8
8  11  8
8  13  8

$$$$
