122178771
  -OEChem-09292322082D

 58 61  0     1  0  0  0  0  0999 V2000
   14.1884    1.5146    0.0000 O   0  0  0  0  0  0  0  0  0  0  0  0
    7.2602    0.5146    0.0000 N   0  0  3  0  0  0  0  0  0  0  0  0
   13.3224    0.0146    0.0000 N   0  0  0  0  0  0  0  0  0  0  0  0
   15.9623    0.4198    0.0000 N   0  0  0  0  0  0  0  0  0  0  0  0
    2.0000   -0.5128    0.0000 N   0  0  0  0  0  0  0  0  0  0  0  0
    7.2602    1.5146    0.0000 C   0  0  0  0  0  0  0  0  0  0  0  0
    8.1263    0.0146    0.0000 C   0  0  0  0  0  0  0  0  0  0  0  0
    6.3942    0.0146    0.0000 C   0  0  0  0  0  0  0  0  0  0  0  0
    6.3942    2.0146    0.0000 C   0  0  0  0  0  0  0  0  0  0  0  0
    8.9923    0.5146    0.0000 C   0  0  0  0  0  0  0  0  0  0  0  0
    5.5282    0.5146    0.0000 C   0  0  0  0  0  0  0  0  0  0  0  0
    5.5282    1.5146    0.0000 C   0  0  0  0  0  0  0  0  0  0  0  0
    9.8583    0.0146    0.0000 C   0  0  0  0  0  0  0  0  0  0  0  0
   10.7243    0.5146    0.0000 C   0  0  0  0  0  0  0  0  0  0  0  0
   11.5904    0.0146    0.0000 C   0  0  0  0  0  0  0  0  0  0  0  0
    4.6342   -0.0200    0.0000 C   0  0  0  0  0  0  0  0  0  0  0  0
    4.6342    2.0493    0.0000 C   0  0  0  0  0  0  0  0  0  0  0  0
   12.4564    0.5146    0.0000 C   0  0  0  0  0  0  0  0  0  0  0  0
    3.7282    0.4938    0.0000 C   0  0  0  0  0  0  0  0  0  0  0  0
    3.7282    1.5355    0.0000 C   0  0  0  0  0  0  0  0  0  0  0  0
   14.1884    0.5146    0.0000 C   0  0  0  0  0  0  0  0  0  0  0  0
   15.0545    0.0146    0.0000 C   0  0  0  0  0  0  0  0  0  0  0  0
    2.8641   -0.0095    0.0000 C   0  0  0  0  0  0  0  0  0  0  0  0
   16.6293   -0.3173    0.0000 C   0  0  0  0  0  0  0  0  0  0  0  0
   16.1293   -1.1833    0.0000 C   0  0  0  0  0  0  0  0  0  0  0  0
   15.1575   -0.9741    0.0000 C   0  0  0  0  0  0  0  0  0  0  0  0
   17.6293   -0.3173    0.0000 C   0  0  0  0  0  0  0  0  0  0  0  0
   16.6293   -2.0493    0.0000 C   0  0  0  0  0  0  0  0  0  0  0  0
   18.1293   -1.1833    0.0000 C   0  0  0  0  0  0  0  0  0  0  0  0
   17.6293   -2.0493    0.0000 C   0  0  0  0  0  0  0  0  0  0  0  0
    7.8708    1.4070    0.0000 H   0  0  0  0  0  0  0  0  0  0  0  0
    7.4723    2.0972    0.0000 H   0  0  0  0  0  0  0  0  0  0  0  0
    7.7277   -0.4603    0.0000 H   0  0  0  0  0  0  0  0  0  0  0  0
    8.5248   -0.4603    0.0000 H   0  0  0  0  0  0  0  0  0  0  0  0
    5.9957   -0.4603    0.0000 H   0  0  0  0  0  0  0  0  0  0  0  0
    6.7928   -0.4603    0.0000 H   0  0  0  0  0  0  0  0  0  0  0  0
    6.7928    2.4896    0.0000 H   0  0  0  0  0  0  0  0  0  0  0  0
    5.9957    2.4896    0.0000 H   0  0  0  0  0  0  0  0  0  0  0  0
    9.3908    0.9896    0.0000 H   0  0  0  0  0  0  0  0  0  0  0  0
    8.5938    0.9896    0.0000 H   0  0  0  0  0  0  0  0  0  0  0  0
    9.4598   -0.4603    0.0000 H   0  0  0  0  0  0  0  0  0  0  0  0
   10.2568   -0.4603    0.0000 H   0  0  0  0  0  0  0  0  0  0  0  0
   11.1229    0.9896    0.0000 H   0  0  0  0  0  0  0  0  0  0  0  0
   10.3258    0.9896    0.0000 H   0  0  0  0  0  0  0  0  0  0  0  0
   11.1918   -0.4603    0.0000 H   0  0  0  0  0  0  0  0  0  0  0  0
   11.9889   -0.4603    0.0000 H   0  0  0  0  0  0  0  0  0  0  0  0
    4.6414   -0.6400    0.0000 H   0  0  0  0  0  0  0  0  0  0  0  0
    4.6414    2.6693    0.0000 H   0  0  0  0  0  0  0  0  0  0  0  0
   12.8549    0.9896    0.0000 H   0  0  0  0  0  0  0  0  0  0  0  0
   12.0579    0.9896    0.0000 H   0  0  0  0  0  0  0  0  0  0  0  0
    3.1924    1.8475    0.0000 H   0  0  0  0  0  0  0  0  0  0  0  0
   13.3224   -0.6054    0.0000 H   0  0  0  0  0  0  0  0  0  0  0  0
   16.0901    1.0264    0.0000 H   0  0  0  0  0  0  0  0  0  0  0  0
   14.6961   -1.3881    0.0000 H   0  0  0  0  0  0  0  0  0  0  0  0
   17.9393    0.2197    0.0000 H   0  0  0  0  0  0  0  0  0  0  0  0
   16.3193   -2.5862    0.0000 H   0  0  0  0  0  0  0  0  0  0  0  0
   18.7493   -1.1833    0.0000 H   0  0  0  0  0  0  0  0  0  0  0  0
   17.9393   -2.5862    0.0000 H   0  0  0  0  0  0  0  0  0  0  0  0
  1 21  2  0  0  0  0
  2  6  1  0  0  0  0
  2  7  1  0  0  0  0
  2  8  1  0  0  0  0
  3 18  1  0  0  0  0
  3 21  1  0  0  0  0
  3 52  1  0  0  0  0
  4 22  1  0  0  0  0
  4 24  1  0  0  0  0
  4 53  1  0  0  0  0
  5 23  3  0  0  0  0
  6  9  1  0  0  0  0
  6 31  1  0  0  0  0
  6 32  1  0  0  0  0
  7 10  1  0  0  0  0
  7 33  1  0  0  0  0
  7 34  1  0  0  0  0
  8 11  1  0  0  0  0
  8 35  1  0  0  0  0
  8 36  1  0  0  0  0
  9 12  1  0  0  0  0
  9 37  1  0  0  0  0
  9 38  1  0  0  0  0
 10 13  1  0  0  0  0
 10 39  1  0  0  0  0
 10 40  1  0  0  0  0
 11 12  2  0  0  0  0
 11 16  1  0  0  0  0
 12 17  1  0  0  0  0
 13 14  1  0  0  0  0
 13 41  1  0  0  0  0
 13 42  1  0  0  0  0
 14 15  1  0  0  0  0
 14 43  1  0  0  0  0
 14 44  1  0  0  0  0
 15 18  1  0  0  0  0
 15 45  1  0  0  0  0
 15 46  1  0  0  0  0
 16 19  2  0  0  0  0
 16 47  1  0  0  0  0
 17 20  2  0  0  0  0
 17 48  1  0  0  0  0
 18 49  1  0  0  0  0
 18 50  1  0  0  0  0
 19 20  1  0  0  0  0
 19 23  1  0  0  0  0
 20 51  1  0  0  0  0
 21 22  1  0  0  0  0
 22 26  2  0  0  0  0
 24 25  1  0  0  0  0
 24 27  2  0  0  0  0
 25 26  1  0  0  0  0
 25 28  2  0  0  0  0
 26 54  1  0  0  0  0
 27 29  1  0  0  0  0
 27 55  1  0  0  0  0
 28 30  1  0  0  0  0
 28 56  1  0  0  0  0
 29 30  2  0  0  0  0
 29 57  1  0  0  0  0
 30 58  1  0  0  0  0
M  END
> <PUBCHEM_COMPOUND_CID>
122178771

> <PUBCHEM_COMPOUND_CANONICALIZED>
1

> <PUBCHEM_CACTVS_COMPLEXITY>
614

> <PUBCHEM_CACTVS_HBOND_ACCEPTOR>
3

> <PUBCHEM_CACTVS_HBOND_DONOR>
2

> <PUBCHEM_CACTVS_ROTATABLE_BOND>
8

> <PUBCHEM_CACTVS_SUBSKEYS>
AAADceB7oAAAAAAAAAAAAAAAAAAAAWAAAAA8YIAAAAAAAFix9AAAHgAQAAAADAjBngQwwPPJkAC4ByVyVACigCAnAiAImaG4ZNgI4PLAlbGUIQhglgDIyY8YicCewAACAAASAACAAAQAACQAAAAAAAAAAA==

> <PUBCHEM_IUPAC_OPENEYE_NAME>
N-[6-(7-cyano-3,4-dihydro-1H-isoquinolin-2-yl)hexyl]-1H-indole-2-carboxamide

> <PUBCHEM_IUPAC_CAS_NAME>
N-[6-(7-cyano-3,4-dihydro-1H-isoquinolin-2-yl)hexyl]-1H-indole-2-carboxamide

> <PUBCHEM_IUPAC_NAME_MARKUP>
<I>N</I>-[6-(7-cyano-3,4-dihydro-1<I>H</I>-isoquinolin-2-yl)hexyl]-1<I>H</I>-indole-2-carboxamide

> <PUBCHEM_IUPAC_NAME>
N-[6-(7-cyano-3,4-dihydro-1H-isoquinolin-2-yl)hexyl]-1H-indole-2-carboxamide

> <PUBCHEM_IUPAC_SYSTEMATIC_NAME>
N-[6-(7-cyano-3,4-dihydro-1H-isoquinolin-2-yl)hexyl]-1H-indole-2-carboxamide

> <PUBCHEM_IUPAC_TRADITIONAL_NAME>
N-[6-(7-cyano-3,4-dihydro-1H-isoquinolin-2-yl)hexyl]-1H-indole-2-carboxamide

> <PUBCHEM_IUPAC_INCHI>
InChI=1S/C25H28N4O/c26-17-19-9-10-20-11-14-29(18-22(20)15-19)13-6-2-1-5-12-27-25(30)24-16-21-7-3-4-8-23(21)28-24/h3-4,7-10,15-16,28H,1-2,5-6,11-14,18H2,(H,27,30)

> <PUBCHEM_IUPAC_INCHIKEY>
OAOKHNQFAVXTFS-UHFFFAOYSA-N

> <PUBCHEM_XLOGP3_AA>
4.4

> <PUBCHEM_EXACT_MASS>
400.22631153

> <PUBCHEM_MOLECULAR_FORMULA>
C25H28N4O

> <PUBCHEM_MOLECULAR_WEIGHT>
400.5

> <PUBCHEM_OPENEYE_CAN_SMILES>
C1CN(CC2=C1C=CC(=C2)C#N)CCCCCCNC(=O)C3=CC4=CC=CC=C4N3

> <PUBCHEM_OPENEYE_ISO_SMILES>
C1CN(CC2=C1C=CC(=C2)C#N)CCCCCCNC(=O)C3=CC4=CC=CC=C4N3

> <PUBCHEM_CACTVS_TPSA>
71.9

> <PUBCHEM_MONOISOTOPIC_WEIGHT>
400.22631153

> <PUBCHEM_TOTAL_CHARGE>
0

> <PUBCHEM_HEAVY_ATOM_COUNT>
30

> <PUBCHEM_ATOM_DEF_STEREO_COUNT>
0

> <PUBCHEM_ATOM_UDEF_STEREO_COUNT>
0

> <PUBCHEM_BOND_DEF_STEREO_COUNT>
0

> <PUBCHEM_BOND_UDEF_STEREO_COUNT>
0

> <PUBCHEM_ISOTOPIC_ATOM_COUNT>
0

> <PUBCHEM_COMPONENT_COUNT>
1

> <PUBCHEM_CACTVS_TAUTO_COUNT>
-1

> <PUBCHEM_COORDINATE_TYPE>
1
5
255

> <PUBCHEM_BONDANNOTATIONS>
11  12  8
11  16  8
12  17  8
16  19  8
17  20  8
19  20  8
22  26  8
24  25  8
24  27  8
25  26  8
25  28  8
27  29  8
28  30  8
29  30  8
4  22  8
4  24  8

$$$$
