44415743
  -OEChem-09292322282D

 57 61  0     0  0  0  0  0  0999 V2000
    2.0000    1.6798    0.0000 Cl  0  0  0  0  0  0  0  0  0  0  0  0
    7.5695   -0.6473    0.0000 O   0  0  0  0  0  0  0  0  0  0  0  0
    4.9036    3.4444    0.0000 N   0  0  0  0  0  0  0  0  0  0  0  0
    4.0358    5.2463    0.0000 N   0  0  0  0  0  0  0  0  0  0  0  0
    5.8374    0.3527    0.0000 N   0  0  0  0  0  0  0  0  0  0  0  0
    6.3374    2.5434    0.0000 N   0  0  0  0  0  0  0  0  0  0  0  0
    5.8374   -0.6473    0.0000 N   0  0  0  0  0  0  0  0  0  0  0  0
    6.7034   -6.1473    0.0000 N   0  0  0  0  0  0  0  0  0  0  0  0
    5.4669    4.2706    0.0000 C   0  0  0  0  0  0  0  0  0  0  0  0
    3.9064    3.5191    0.0000 C   0  0  0  0  0  0  0  0  0  0  0  0
    5.0330    5.1716    0.0000 C   0  0  0  0  0  0  0  0  0  0  0  0
    3.4725    4.4201    0.0000 C   0  0  0  0  0  0  0  0  0  0  0  0
    5.3374    2.5434    0.0000 C   0  0  0  0  0  0  0  0  0  0  0  0
    4.7139    1.7616    0.0000 C   0  0  0  0  0  0  0  0  0  0  0  0
    3.6019    6.1473    0.0000 C   0  0  0  0  0  0  0  0  0  0  0  0
    4.9364    0.7866    0.0000 C   0  0  0  0  0  0  0  0  0  0  0  0
    6.7384    0.7866    0.0000 C   0  0  0  0  0  0  0  0  0  0  0  0
    6.9609    1.7615    0.0000 C   0  0  0  0  0  0  0  0  0  0  0  0
    3.7234    2.0839    0.0000 C   0  0  0  0  0  0  0  0  0  0  0  0
    4.1839    0.0665    0.0000 C   0  0  0  0  0  0  0  0  0  0  0  0
    2.9544    1.3813    0.0000 C   0  0  0  0  0  0  0  0  0  0  0  0
    7.4909    0.0664    0.0000 C   0  0  0  0  0  0  0  0  0  0  0  0
    7.9514    2.0839    0.0000 C   0  0  0  0  0  0  0  0  0  0  0  0
    3.1862    0.3658    0.0000 C   0  0  0  0  0  0  0  0  0  0  0  0
    8.4886    0.3658    0.0000 C   0  0  0  0  0  0  0  0  0  0  0  0
    8.7204    1.3813    0.0000 C   0  0  0  0  0  0  0  0  0  0  0  0
    6.7034   -1.1473    0.0000 C   0  0  0  0  0  0  0  0  0  0  0  0
    6.7034   -2.1473    0.0000 C   0  0  0  0  0  0  0  0  0  0  0  0
    7.5694   -2.6473    0.0000 C   0  0  0  0  0  0  0  0  0  0  0  0
    5.8374   -2.6473    0.0000 C   0  0  0  0  0  0  0  0  0  0  0  0
    7.5694   -3.6473    0.0000 C   0  0  0  0  0  0  0  0  0  0  0  0
    5.8374   -3.6473    0.0000 C   0  0  0  0  0  0  0  0  0  0  0  0
    6.7034   -4.1473    0.0000 C   0  0  0  0  0  0  0  0  0  0  0  0
    6.7034   -5.1473    0.0000 C   0  0  0  0  0  0  0  0  0  0  0  0
    5.9107    3.8377    0.0000 H   0  0  0  0  0  0  0  0  0  0  0  0
    5.9703    4.6325    0.0000 H   0  0  0  0  0  0  0  0  0  0  0  0
    3.3095    3.3512    0.0000 H   0  0  0  0  0  0  0  0  0  0  0  0
    3.9681    2.9022    0.0000 H   0  0  0  0  0  0  0  0  0  0  0  0
    5.6298    5.3395    0.0000 H   0  0  0  0  0  0  0  0  0  0  0  0
    4.9713    5.7885    0.0000 H   0  0  0  0  0  0  0  0  0  0  0  0
    3.0286    4.8530    0.0000 H   0  0  0  0  0  0  0  0  0  0  0  0
    2.9691    4.0582    0.0000 H   0  0  0  0  0  0  0  0  0  0  0  0
    4.1605    6.4163    0.0000 H   0  0  0  0  0  0  0  0  0  0  0  0
    3.3329    6.7059    0.0000 H   0  0  0  0  0  0  0  0  0  0  0  0
    3.0433    5.8783    0.0000 H   0  0  0  0  0  0  0  0  0  0  0  0
    3.5925    2.6899    0.0000 H   0  0  0  0  0  0  0  0  0  0  0  0
    4.3288   -0.5364    0.0000 H   0  0  0  0  0  0  0  0  0  0  0  0
    7.3460   -0.5364    0.0000 H   0  0  0  0  0  0  0  0  0  0  0  0
    5.3005   -0.9573    0.0000 H   0  0  0  0  0  0  0  0  0  0  0  0
    8.0824    2.6899    0.0000 H   0  0  0  0  0  0  0  0  0  0  0  0
    2.7333   -0.0576    0.0000 H   0  0  0  0  0  0  0  0  0  0  0  0
    8.9415   -0.0577    0.0000 H   0  0  0  0  0  0  0  0  0  0  0  0
    9.3122    1.5663    0.0000 H   0  0  0  0  0  0  0  0  0  0  0  0
    8.1064   -2.3373    0.0000 H   0  0  0  0  0  0  0  0  0  0  0  0
    5.3005   -2.3373    0.0000 H   0  0  0  0  0  0  0  0  0  0  0  0
    8.1064   -3.9573    0.0000 H   0  0  0  0  0  0  0  0  0  0  0  0
    5.3004   -3.9573    0.0000 H   0  0  0  0  0  0  0  0  0  0  0  0
  1 21  1  0  0  0  0
  2 27  2  0  0  0  0
  3  9  1  0  0  0  0
  3 10  1  0  0  0  0
  3 13  1  0  0  0  0
  4 11  1  0  0  0  0
  4 12  1  0  0  0  0
  4 15  1  0  0  0  0
  5  7  1  0  0  0  0
  5 16  1  0  0  0  0
  5 17  1  0  0  0  0
  6 13  2  0  0  0  0
  6 18  1  0  0  0  0
  7 27  1  0  0  0  0
  7 49  1  0  0  0  0
  8 34  3  0  0  0  0
  9 11  1  0  0  0  0
  9 35  1  0  0  0  0
  9 36  1  0  0  0  0
 10 12  1  0  0  0  0
 10 37  1  0  0  0  0
 10 38  1  0  0  0  0
 11 39  1  0  0  0  0
 11 40  1  0  0  0  0
 12 41  1  0  0  0  0
 12 42  1  0  0  0  0
 13 14  1  0  0  0  0
 14 16  2  0  0  0  0
 14 19  1  0  0  0  0
 15 43  1  0  0  0  0
 15 44  1  0  0  0  0
 15 45  1  0  0  0  0
 16 20  1  0  0  0  0
 17 18  1  0  0  0  0
 17 22  2  0  0  0  0
 18 23  2  0  0  0  0
 19 21  2  0  0  0  0
 19 46  1  0  0  0  0
 20 24  2  0  0  0  0
 20 47  1  0  0  0  0
 21 24  1  0  0  0  0
 22 25  1  0  0  0  0
 22 48  1  0  0  0  0
 23 26  1  0  0  0  0
 23 50  1  0  0  0  0
 24 51  1  0  0  0  0
 25 26  2  0  0  0  0
 25 52  1  0  0  0  0
 26 53  1  0  0  0  0
 27 28  1  0  0  0  0
 28 29  2  0  0  0  0
 28 30  1  0  0  0  0
 29 31  1  0  0  0  0
 29 54  1  0  0  0  0
 30 32  2  0  0  0  0
 30 55  1  0  0  0  0
 31 33  2  0  0  0  0
 31 56  1  0  0  0  0
 32 33  1  0  0  0  0
 32 57  1  0  0  0  0
 33 34  1  0  0  0  0
M  END
> <PUBCHEM_COMPOUND_CID>
44415743

> <PUBCHEM_COMPOUND_CANONICALIZED>
1

> <PUBCHEM_CACTVS_COMPLEXITY>
809

> <PUBCHEM_CACTVS_HBOND_ACCEPTOR>
5

> <PUBCHEM_CACTVS_HBOND_DONOR>
1

> <PUBCHEM_CACTVS_ROTATABLE_BOND>
3

> <PUBCHEM_CACTVS_SUBSKEYS>
AAADceB7oAAEAAAAAAAAAAAAAAAAAAAAAAA8YMEABAAAAAABUAAAHgIYAAAADArBmCQzwINiAAC4BidydACiBAElBwAbqAEodtgI4PLB35GUIQhggADIyY8YiACOQABAIAACACCAAIBAAAQAQAAAAAAAAA==

> <PUBCHEM_IUPAC_OPENEYE_NAME>
N-[8-chloro-6-(4-methylpiperazin-1-yl)benzo[b][1,4]benzodiazepin-11-yl]-4-cyano-benzamide

> <PUBCHEM_IUPAC_CAS_NAME>
N-[8-chloro-6-(4-methyl-1-piperazinyl)-11-benzo[b][1,4]benzodiazepinyl]-4-cyanobenzamide

> <PUBCHEM_IUPAC_NAME_MARKUP>
<I>N</I>-[8-chloro-6-(4-methylpiperazin-1-yl)benzo[b][1,4]benzodiazepin-11-yl]-4-cyanobenzamide

> <PUBCHEM_IUPAC_NAME>
N-[8-chloro-6-(4-methylpiperazin-1-yl)benzo[b][1,4]benzodiazepin-11-yl]-4-cyanobenzamide

> <PUBCHEM_IUPAC_SYSTEMATIC_NAME>
N-[8-chloranyl-6-(4-methylpiperazin-1-yl)benzo[b][1,4]benzodiazepin-11-yl]-4-cyano-benzamide

> <PUBCHEM_IUPAC_TRADITIONAL_NAME>
N-[8-chloro-6-(4-methylpiperazino)benzo[b][1,4]benzodiazepin-11-yl]-4-cyano-benzamide

> <PUBCHEM_IUPAC_INCHI>
InChI=1S/C26H23ClN6O/c1-31-12-14-32(15-13-31)25-21-16-20(27)10-11-23(21)33(24-5-3-2-4-22(24)29-25)30-26(34)19-8-6-18(17-28)7-9-19/h2-11,16H,12-15H2,1H3,(H,30,34)

> <PUBCHEM_IUPAC_INCHIKEY>
AUKPHAAWNDZREH-UHFFFAOYSA-N

> <PUBCHEM_XLOGP3_AA>
4.1

> <PUBCHEM_EXACT_MASS>
470.1621871

> <PUBCHEM_MOLECULAR_FORMULA>
C26H23ClN6O

> <PUBCHEM_MOLECULAR_WEIGHT>
471.0

> <PUBCHEM_OPENEYE_CAN_SMILES>
CN1CCN(CC1)C2=NC3=CC=CC=C3N(C4=C2C=C(C=C4)Cl)NC(=O)C5=CC=C(C=C5)C#N

> <PUBCHEM_OPENEYE_ISO_SMILES>
CN1CCN(CC1)C2=NC3=CC=CC=C3N(C4=C2C=C(C=C4)Cl)NC(=O)C5=CC=C(C=C5)C#N

> <PUBCHEM_CACTVS_TPSA>
75

> <PUBCHEM_MONOISOTOPIC_WEIGHT>
470.1621871

> <PUBCHEM_TOTAL_CHARGE>
0

> <PUBCHEM_HEAVY_ATOM_COUNT>
34

> <PUBCHEM_ATOM_DEF_STEREO_COUNT>
0

> <PUBCHEM_ATOM_UDEF_STEREO_COUNT>
0

> <PUBCHEM_BOND_DEF_STEREO_COUNT>
0

> <PUBCHEM_BOND_UDEF_STEREO_COUNT>
0

> <PUBCHEM_ISOTOPIC_ATOM_COUNT>
0

> <PUBCHEM_COMPONENT_COUNT>
1

> <PUBCHEM_CACTVS_TAUTO_COUNT>
-1

> <PUBCHEM_COORDINATE_TYPE>
1
5
255

> <PUBCHEM_BONDANNOTATIONS>
14  16  8
14  19  8
16  20  8
17  18  8
17  22  8
18  23  8
19  21  8
20  24  8
21  24  8
22  25  8
23  26  8
25  26  8
28  29  8
28  30  8
29  31  8
30  32  8
31  33  8
32  33  8

$$$$
