57398352
  -OEChem-09292322322D

 49 51  0     0  0  0  0  0  0999 V2000
    2.8660   -3.0000    0.0000 S   0  0  0  0  0  0  0  0  0  0  0  0
    4.5981    7.0000    0.0000 F   0  0  0  0  0  0  0  0  0  0  0  0
    5.5981    6.0000    0.0000 F   0  0  0  0  0  0  0  0  0  0  0  0
    3.5981    6.0000    0.0000 F   0  0  0  0  0  0  0  0  0  0  0  0
    2.8660   -7.0000    0.0000 F   0  0  0  0  0  0  0  0  0  0  0  0
    4.5981   -0.0000    0.0000 N   0  0  0  0  0  0  0  0  0  0  0  0
    4.5981    2.0000    0.0000 N   0  0  0  0  0  0  0  0  0  0  0  0
    5.4641    0.5000    0.0000 C   0  0  0  0  0  0  0  0  0  0  0  0
    3.7320    0.5000    0.0000 C   0  0  0  0  0  0  0  0  0  0  0  0
    5.4641    1.5000    0.0000 C   0  0  0  0  0  0  0  0  0  0  0  0
    3.7320    1.5000    0.0000 C   0  0  0  0  0  0  0  0  0  0  0  0
    4.5981   -1.0000    0.0000 C   0  0  0  0  0  0  0  0  0  0  0  0
    3.7320   -1.5000    0.0000 C   0  0  0  0  0  0  0  0  0  0  0  0
    4.5981    3.0000    0.0000 C   0  0  0  0  0  0  0  0  0  0  0  0
    3.7320   -2.5000    0.0000 C   0  0  0  0  0  0  0  0  0  0  0  0
    3.7320    3.5000    0.0000 C   0  0  0  0  0  0  0  0  0  0  0  0
    5.4641    3.5000    0.0000 C   0  0  0  0  0  0  0  0  0  0  0  0
    3.7320    4.5000    0.0000 C   0  0  0  0  0  0  0  0  0  0  0  0
    5.4641    4.5000    0.0000 C   0  0  0  0  0  0  0  0  0  0  0  0
    4.5981    5.0000    0.0000 C   0  0  0  0  0  0  0  0  0  0  0  0
    4.5981    6.0000    0.0000 C   0  0  0  0  0  0  0  0  0  0  0  0
    2.8660   -4.0000    0.0000 C   0  0  0  0  0  0  0  0  0  0  0  0
    3.7320   -4.5000    0.0000 C   0  0  0  0  0  0  0  0  0  0  0  0
    2.0000   -4.5000    0.0000 C   0  0  0  0  0  0  0  0  0  0  0  0
    3.7320   -5.5000    0.0000 C   0  0  0  0  0  0  0  0  0  0  0  0
    2.0000   -5.5000    0.0000 C   0  0  0  0  0  0  0  0  0  0  0  0
    2.8660   -6.0000    0.0000 C   0  0  0  0  0  0  0  0  0  0  0  0
    5.6762   -0.0826    0.0000 H   0  0  0  0  0  0  0  0  0  0  0  0
    6.0747    0.6077    0.0000 H   0  0  0  0  0  0  0  0  0  0  0  0
    3.1215    0.6077    0.0000 H   0  0  0  0  0  0  0  0  0  0  0  0
    3.5200   -0.0826    0.0000 H   0  0  0  0  0  0  0  0  0  0  0  0
    6.0747    1.3923    0.0000 H   0  0  0  0  0  0  0  0  0  0  0  0
    5.6762    2.0826    0.0000 H   0  0  0  0  0  0  0  0  0  0  0  0
    3.5200    2.0826    0.0000 H   0  0  0  0  0  0  0  0  0  0  0  0
    3.1215    1.3923    0.0000 H   0  0  0  0  0  0  0  0  0  0  0  0
    4.8101   -1.5826    0.0000 H   0  0  0  0  0  0  0  0  0  0  0  0
    5.2087   -0.8923    0.0000 H   0  0  0  0  0  0  0  0  0  0  0  0
    3.5200   -0.9174    0.0000 H   0  0  0  0  0  0  0  0  0  0  0  0
    3.1215   -1.6077    0.0000 H   0  0  0  0  0  0  0  0  0  0  0  0
    3.9441   -3.0826    0.0000 H   0  0  0  0  0  0  0  0  0  0  0  0
    4.3426   -2.3923    0.0000 H   0  0  0  0  0  0  0  0  0  0  0  0
    3.1951    3.1900    0.0000 H   0  0  0  0  0  0  0  0  0  0  0  0
    6.0010    3.1900    0.0000 H   0  0  0  0  0  0  0  0  0  0  0  0
    3.1951    4.8100    0.0000 H   0  0  0  0  0  0  0  0  0  0  0  0
    6.0010    4.8100    0.0000 H   0  0  0  0  0  0  0  0  0  0  0  0
    4.2690   -4.1900    0.0000 H   0  0  0  0  0  0  0  0  0  0  0  0
    1.4631   -4.1900    0.0000 H   0  0  0  0  0  0  0  0  0  0  0  0
    4.2690   -5.8100    0.0000 H   0  0  0  0  0  0  0  0  0  0  0  0
    1.4631   -5.8100    0.0000 H   0  0  0  0  0  0  0  0  0  0  0  0
  1 15  1  0  0  0  0
  1 22  1  0  0  0  0
  2 21  1  0  0  0  0
  3 21  1  0  0  0  0
  4 21  1  0  0  0  0
  5 27  1  0  0  0  0
  6  8  1  0  0  0  0
  6  9  1  0  0  0  0
  6 12  1  0  0  0  0
  7 10  1  0  0  0  0
  7 11  1  0  0  0  0
  7 14  1  0  0  0  0
  8 10  1  0  0  0  0
  8 28  1  0  0  0  0
  8 29  1  0  0  0  0
  9 11  1  0  0  0  0
  9 30  1  0  0  0  0
  9 31  1  0  0  0  0
 10 32  1  0  0  0  0
 10 33  1  0  0  0  0
 11 34  1  0  0  0  0
 11 35  1  0  0  0  0
 12 13  1  0  0  0  0
 12 36  1  0  0  0  0
 12 37  1  0  0  0  0
 13 15  1  0  0  0  0
 13 38  1  0  0  0  0
 13 39  1  0  0  0  0
 14 16  2  0  0  0  0
 14 17  1  0  0  0  0
 15 40  1  0  0  0  0
 15 41  1  0  0  0  0
 16 18  1  0  0  0  0
 16 42  1  0  0  0  0
 17 19  2  0  0  0  0
 17 43  1  0  0  0  0
 18 20  2  0  0  0  0
 18 44  1  0  0  0  0
 19 20  1  0  0  0  0
 19 45  1  0  0  0  0
 20 21  1  0  0  0  0
 22 23  2  0  0  0  0
 22 24  1  0  0  0  0
 23 25  1  0  0  0  0
 23 46  1  0  0  0  0
 24 26  2  0  0  0  0
 24 47  1  0  0  0  0
 25 27  2  0  0  0  0
 25 48  1  0  0  0  0
 26 27  1  0  0  0  0
 26 49  1  0  0  0  0
M  END
> <PUBCHEM_COMPOUND_CID>
57398352

> <PUBCHEM_COMPOUND_CANONICALIZED>
1

> <PUBCHEM_CACTVS_COMPLEXITY>
424

> <PUBCHEM_CACTVS_HBOND_ACCEPTOR>
7

> <PUBCHEM_CACTVS_HBOND_DONOR>
0

> <PUBCHEM_CACTVS_ROTATABLE_BOND>
6

> <PUBCHEM_CACTVS_SUBSKEYS>
AAADceB7AcBAAAAAAAAAAAAAAAAAAAAAAAA8YIAAAAAAAAABQAAAHQQAAAAADAjFWBywwYMAAAiAAiRCQACCAAAhChAIiBgIZIgIYCLgkZGUIAhggADoyAcQgAAOCAAAAAAAAAAQAAAAAAAAAAAAAAAAAA==

> <PUBCHEM_IUPAC_OPENEYE_NAME>
1-[3-(4-fluorophenyl)sulfanylpropyl]-4-[4-(trifluoromethyl)phenyl]piperazine

> <PUBCHEM_IUPAC_CAS_NAME>
1-[3-[(4-fluorophenyl)thio]propyl]-4-[4-(trifluoromethyl)phenyl]piperazine

> <PUBCHEM_IUPAC_NAME_MARKUP>
1-[3-(4-fluorophenyl)sulfanylpropyl]-4-[4-(trifluoromethyl)phenyl]piperazine

> <PUBCHEM_IUPAC_NAME>
1-[3-(4-fluorophenyl)sulfanylpropyl]-4-[4-(trifluoromethyl)phenyl]piperazine

> <PUBCHEM_IUPAC_SYSTEMATIC_NAME>
1-[3-(4-fluorophenyl)sulfanylpropyl]-4-[4-(trifluoromethyl)phenyl]piperazine

> <PUBCHEM_IUPAC_TRADITIONAL_NAME>
1-[3-[(4-fluorophenyl)thio]propyl]-4-[4-(trifluoromethyl)phenyl]piperazine

> <PUBCHEM_IUPAC_INCHI>
InChI=1S/C20H22F4N2S/c21-17-4-8-19(9-5-17)27-15-1-10-25-11-13-26(14-12-25)18-6-2-16(3-7-18)20(22,23)24/h2-9H,1,10-15H2

> <PUBCHEM_IUPAC_INCHIKEY>
QLMIVFXMQPUHKG-UHFFFAOYSA-N

> <PUBCHEM_XLOGP3_AA>
5.4

> <PUBCHEM_EXACT_MASS>
398.14398253

> <PUBCHEM_MOLECULAR_FORMULA>
C20H22F4N2S

> <PUBCHEM_MOLECULAR_WEIGHT>
398.5

> <PUBCHEM_OPENEYE_CAN_SMILES>
C1CN(CCN1CCCSC2=CC=C(C=C2)F)C3=CC=C(C=C3)C(F)(F)F

> <PUBCHEM_OPENEYE_ISO_SMILES>
C1CN(CCN1CCCSC2=CC=C(C=C2)F)C3=CC=C(C=C3)C(F)(F)F

> <PUBCHEM_CACTVS_TPSA>
31.8

> <PUBCHEM_MONOISOTOPIC_WEIGHT>
398.14398253

> <PUBCHEM_TOTAL_CHARGE>
0

> <PUBCHEM_HEAVY_ATOM_COUNT>
27

> <PUBCHEM_ATOM_DEF_STEREO_COUNT>
0

> <PUBCHEM_ATOM_UDEF_STEREO_COUNT>
0

> <PUBCHEM_BOND_DEF_STEREO_COUNT>
0

> <PUBCHEM_BOND_UDEF_STEREO_COUNT>
0

> <PUBCHEM_ISOTOPIC_ATOM_COUNT>
0

> <PUBCHEM_COMPONENT_COUNT>
1

> <PUBCHEM_CACTVS_TAUTO_COUNT>
-1

> <PUBCHEM_COORDINATE_TYPE>
1
5
255

> <PUBCHEM_BONDANNOTATIONS>
14  16  8
14  17  8
16  18  8
17  19  8
18  20  8
19  20  8
22  23  8
22  24  8
23  25  8
24  26  8
25  27  8
26  27  8

$$$$
