56658155
  -OEChem-09292322322D

 52 55  0     0  0  0  0  0  0999 V2000
    4.6783    1.7264    0.0000 O   0  0  0  0  0  0  0  0  0  0  0  0
   11.2619   -0.9330    0.0000 O   0  0  0  0  0  0  0  0  0  0  0  0
    7.7619   -0.0670    0.0000 N   0  0  0  0  0  0  0  0  0  0  0  0
    6.7619    1.6651    0.0000 N   0  0  0  0  0  0  0  0  0  0  0  0
    8.2619    0.7990    0.0000 C   0  0  0  0  0  0  0  0  0  0  0  0
    6.7619   -0.0670    0.0000 C   0  0  0  0  0  0  0  0  0  0  0  0
    7.7619    1.6651    0.0000 C   0  0  0  0  0  0  0  0  0  0  0  0
    6.2619    0.7990    0.0000 C   0  0  0  0  0  0  0  0  0  0  0  0
    8.2619   -0.9330    0.0000 C   0  0  0  0  0  0  0  0  0  0  0  0
    6.2619    2.5311    0.0000 C   0  0  0  0  0  0  0  0  0  0  0  0
    9.2619   -0.9330    0.0000 C   0  0  0  0  0  0  0  0  0  0  0  0
    5.2619    2.5311    0.0000 C   0  0  0  0  0  0  0  0  0  0  0  0
    9.7619   -1.7990    0.0000 C   0  0  0  0  0  0  0  0  0  0  0  0
    4.6783    3.3358    0.0000 C   0  0  0  0  0  0  0  0  0  0  0  0
    3.7320    3.0311    0.0000 C   0  0  0  0  0  0  0  0  0  0  0  0
    3.7320    2.0311    0.0000 C   0  0  0  0  0  0  0  0  0  0  0  0
   10.7619   -1.7990    0.0000 C   0  0  0  0  0  0  0  0  0  0  0  0
    9.2619   -2.6651    0.0000 C   0  0  0  0  0  0  0  0  0  0  0  0
    2.8660    3.5311    0.0000 C   0  0  0  0  0  0  0  0  0  0  0  0
    2.8660    1.5311    0.0000 C   0  0  0  0  0  0  0  0  0  0  0  0
   11.2619   -2.6651    0.0000 C   0  0  0  0  0  0  0  0  0  0  0  0
    9.7619   -3.5311    0.0000 C   0  0  0  0  0  0  0  0  0  0  0  0
   10.7619   -3.5311    0.0000 C   0  0  0  0  0  0  0  0  0  0  0  0
    2.0000    3.0311    0.0000 C   0  0  0  0  0  0  0  0  0  0  0  0
    2.0000    2.0311    0.0000 C   0  0  0  0  0  0  0  0  0  0  0  0
   12.2619   -0.9330    0.0000 C   0  0  0  0  0  0  0  0  0  0  0  0
    8.7368    0.4005    0.0000 H   0  0  0  0  0  0  0  0  0  0  0  0
    8.7368    1.1976    0.0000 H   0  0  0  0  0  0  0  0  0  0  0  0
    6.1793   -0.2790    0.0000 H   0  0  0  0  0  0  0  0  0  0  0  0
    6.8695   -0.6776    0.0000 H   0  0  0  0  0  0  0  0  0  0  0  0
    8.3445    1.8771    0.0000 H   0  0  0  0  0  0  0  0  0  0  0  0
    7.6542    2.2756    0.0000 H   0  0  0  0  0  0  0  0  0  0  0  0
    5.7869    1.1976    0.0000 H   0  0  0  0  0  0  0  0  0  0  0  0
    5.7869    0.4005    0.0000 H   0  0  0  0  0  0  0  0  0  0  0  0
    7.6793   -1.1451    0.0000 H   0  0  0  0  0  0  0  0  0  0  0  0
    8.3695   -1.5436    0.0000 H   0  0  0  0  0  0  0  0  0  0  0  0
    6.8445    2.7431    0.0000 H   0  0  0  0  0  0  0  0  0  0  0  0
    6.1542    3.1417    0.0000 H   0  0  0  0  0  0  0  0  0  0  0  0
    9.8445   -0.7210    0.0000 H   0  0  0  0  0  0  0  0  0  0  0  0
    9.1542   -0.3224    0.0000 H   0  0  0  0  0  0  0  0  0  0  0  0
    4.8709    3.9251    0.0000 H   0  0  0  0  0  0  0  0  0  0  0  0
    8.6419   -2.6651    0.0000 H   0  0  0  0  0  0  0  0  0  0  0  0
    2.8660    4.1511    0.0000 H   0  0  0  0  0  0  0  0  0  0  0  0
    2.8660    0.9111    0.0000 H   0  0  0  0  0  0  0  0  0  0  0  0
   11.8819   -2.6651    0.0000 H   0  0  0  0  0  0  0  0  0  0  0  0
    9.4519   -4.0680    0.0000 H   0  0  0  0  0  0  0  0  0  0  0  0
   11.0719   -4.0680    0.0000 H   0  0  0  0  0  0  0  0  0  0  0  0
    1.4631    3.3411    0.0000 H   0  0  0  0  0  0  0  0  0  0  0  0
    1.4631    1.7211    0.0000 H   0  0  0  0  0  0  0  0  0  0  0  0
   12.2619   -1.5530    0.0000 H   0  0  0  0  0  0  0  0  0  0  0  0
   12.8819   -0.9330    0.0000 H   0  0  0  0  0  0  0  0  0  0  0  0
   12.2619   -0.3130    0.0000 H   0  0  0  0  0  0  0  0  0  0  0  0
  1 12  1  0  0  0  0
  1 16  1  0  0  0  0
  2 17  1  0  0  0  0
  2 26  1  0  0  0  0
  3  5  1  0  0  0  0
  3  6  1  0  0  0  0
  3  9  1  0  0  0  0
  4  7  1  0  0  0  0
  4  8  1  0  0  0  0
  4 10  1  0  0  0  0
  5  7  1  0  0  0  0
  5 27  1  0  0  0  0
  5 28  1  0  0  0  0
  6  8  1  0  0  0  0
  6 29  1  0  0  0  0
  6 30  1  0  0  0  0
  7 31  1  0  0  0  0
  7 32  1  0  0  0  0
  8 33  1  0  0  0  0
  8 34  1  0  0  0  0
  9 11  1  0  0  0  0
  9 35  1  0  0  0  0
  9 36  1  0  0  0  0
 10 12  1  0  0  0  0
 10 37  1  0  0  0  0
 10 38  1  0  0  0  0
 11 13  1  0  0  0  0
 11 39  1  0  0  0  0
 11 40  1  0  0  0  0
 12 14  2  0  0  0  0
 13 17  1  0  0  0  0
 13 18  2  0  0  0  0
 14 15  1  0  0  0  0
 14 41  1  0  0  0  0
 15 16  1  0  0  0  0
 15 19  2  0  0  0  0
 16 20  2  0  0  0  0
 17 21  2  0  0  0  0
 18 22  1  0  0  0  0
 18 42  1  0  0  0  0
 19 24  1  0  0  0  0
 19 43  1  0  0  0  0
 20 25  1  0  0  0  0
 20 44  1  0  0  0  0
 21 23  1  0  0  0  0
 21 45  1  0  0  0  0
 22 23  2  0  0  0  0
 22 46  1  0  0  0  0
 23 47  1  0  0  0  0
 24 25  2  0  0  0  0
 24 48  1  0  0  0  0
 25 49  1  0  0  0  0
 26 50  1  0  0  0  0
 26 51  1  0  0  0  0
 26 52  1  0  0  0  0
M  END
> <PUBCHEM_COMPOUND_CID>
56658155

> <PUBCHEM_COMPOUND_CANONICALIZED>
1

> <PUBCHEM_CACTVS_COMPLEXITY>
424

> <PUBCHEM_CACTVS_HBOND_ACCEPTOR>
4

> <PUBCHEM_CACTVS_HBOND_DONOR>
0

> <PUBCHEM_CACTVS_ROTATABLE_BOND>
6

> <PUBCHEM_CACTVS_SUBSKEYS>
AAADceB7MAAAAAAAAAAAAAAAAAAAASAAAAA8YIAAAAAAAEgB9AAAHgAAAAAADATBmAYyBsMABECIAqBSAACCCAAkIAAIiAGODMgOZjKEtTuXOSjkwBGYqYe42aKOAAAAAAAIAAAAAAAAABAAAAAAAAAAAA==

> <PUBCHEM_IUPAC_OPENEYE_NAME>
1-(benzofuran-2-ylmethyl)-4-[2-(2-methoxyphenyl)ethyl]piperazine

> <PUBCHEM_IUPAC_CAS_NAME>
1-(2-benzofuranylmethyl)-4-[2-(2-methoxyphenyl)ethyl]piperazine

> <PUBCHEM_IUPAC_NAME_MARKUP>
1-(1-benzofuran-2-ylmethyl)-4-[2-(2-methoxyphenyl)ethyl]piperazine

> <PUBCHEM_IUPAC_NAME>
1-(1-benzofuran-2-ylmethyl)-4-[2-(2-methoxyphenyl)ethyl]piperazine

> <PUBCHEM_IUPAC_SYSTEMATIC_NAME>
1-(1-benzofuran-2-ylmethyl)-4-[2-(2-methoxyphenyl)ethyl]piperazine

> <PUBCHEM_IUPAC_TRADITIONAL_NAME>
1-(benzofuran-2-ylmethyl)-4-[2-(2-methoxyphenyl)ethyl]piperazine

> <PUBCHEM_IUPAC_INCHI>
InChI=1S/C22H26N2O2/c1-25-21-8-4-2-6-18(21)10-11-23-12-14-24(15-13-23)17-20-16-19-7-3-5-9-22(19)26-20/h2-9,16H,10-15,17H2,1H3

> <PUBCHEM_IUPAC_INCHIKEY>
QLZUEQSDNKXKCQ-UHFFFAOYSA-N

> <PUBCHEM_XLOGP3_AA>
3.9

> <PUBCHEM_EXACT_MASS>
350.199428076

> <PUBCHEM_MOLECULAR_FORMULA>
C22H26N2O2

> <PUBCHEM_MOLECULAR_WEIGHT>
350.5

> <PUBCHEM_OPENEYE_CAN_SMILES>
COC1=CC=CC=C1CCN2CCN(CC2)CC3=CC4=CC=CC=C4O3

> <PUBCHEM_OPENEYE_ISO_SMILES>
COC1=CC=CC=C1CCN2CCN(CC2)CC3=CC4=CC=CC=C4O3

> <PUBCHEM_CACTVS_TPSA>
28.8

> <PUBCHEM_MONOISOTOPIC_WEIGHT>
350.199428076

> <PUBCHEM_TOTAL_CHARGE>
0

> <PUBCHEM_HEAVY_ATOM_COUNT>
26

> <PUBCHEM_ATOM_DEF_STEREO_COUNT>
0

> <PUBCHEM_ATOM_UDEF_STEREO_COUNT>
0

> <PUBCHEM_BOND_DEF_STEREO_COUNT>
0

> <PUBCHEM_BOND_UDEF_STEREO_COUNT>
0

> <PUBCHEM_ISOTOPIC_ATOM_COUNT>
0

> <PUBCHEM_COMPONENT_COUNT>
1

> <PUBCHEM_CACTVS_TAUTO_COUNT>
-1

> <PUBCHEM_COORDINATE_TYPE>
1
5
255

> <PUBCHEM_BONDANNOTATIONS>
1  12  8
1  16  8
12  14  8
13  17  8
13  18  8
14  15  8
15  16  8
15  19  8
16  20  8
17  21  8
18  22  8
19  24  8
20  25  8
21  23  8
22  23  8
24  25  8

$$$$
