134153716
  -OEChem-09292322382D

 76 79  0     1  0  0  0  0  0999 V2000
   10.6603    1.0000    0.0000 O   0  0  0  0  0  0  0  0  0  0  0  0
    2.8660   -4.5000    0.0000 O   0  0  0  0  0  0  0  0  0  0  0  0
    7.1962   -3.0000    0.0000 N   0  0  0  0  0  0  0  0  0  0  0  0
    7.1962   -5.0000    0.0000 N   0  0  0  0  0  0  0  0  0  0  0  0
    9.7942    2.5000    0.0000 N   0  0  0  0  0  0  0  0  0  0  0  0
   10.6603    8.0000    0.0000 N   0  0  0  0  0  0  0  0  0  0  0  0
    6.3301   -3.5000    0.0000 C   0  0  0  0  0  0  0  0  0  0  0  0
    8.0622   -3.5000    0.0000 C   0  0  0  0  0  0  0  0  0  0  0  0
    6.3301   -4.5000    0.0000 C   0  0  0  0  0  0  0  0  0  0  0  0
    8.0622   -4.5000    0.0000 C   0  0  0  0  0  0  0  0  0  0  0  0
    7.1962   -2.0000    0.0000 C   0  0  0  0  0  0  0  0  0  0  0  0
    8.0622   -1.5000    0.0000 C   0  0  0  0  0  0  0  0  0  0  0  0
    7.1962   -6.0000    0.0000 C   0  0  0  0  0  0  0  0  0  0  0  0
    8.0622   -0.5000    0.0000 C   0  0  0  0  0  0  0  0  0  0  0  0
    8.9282    0.0000    0.0000 C   0  0  0  0  0  0  0  0  0  0  0  0
    6.3301   -6.5000    0.0000 C   0  0  0  0  0  0  0  0  0  0  0  0
    8.0622   -6.5000    0.0000 C   0  0  0  0  0  0  0  0  0  0  0  0
    8.9282    1.0000    0.0000 C   0  0  0  0  0  0  0  0  0  0  0  0
    5.4641   -6.0000    0.0000 C   0  0  0  0  0  0  0  0  0  0  0  0
    6.3301   -7.5000    0.0000 C   0  0  0  0  0  0  0  0  0  0  0  0
    8.0622   -7.5000    0.0000 C   0  0  0  0  0  0  0  0  0  0  0  0
    9.7942    1.5000    0.0000 C   0  0  0  0  0  0  0  0  0  0  0  0
    7.1962   -8.0000    0.0000 C   0  0  0  0  0  0  0  0  0  0  0  0
   10.6603    3.0000    0.0000 C   0  0  1  0  0  0  0  0  0  0  0  0
    5.4641   -5.0000    0.0000 C   0  0  0  0  0  0  0  0  0  0  0  0
    4.5981   -6.5000    0.0000 C   0  0  0  0  0  0  0  0  0  0  0  0
   10.6603    4.0000    0.0000 C   0  0  0  0  0  0  0  0  0  0  0  0
    4.5981   -4.5000    0.0000 C   0  0  0  0  0  0  0  0  0  0  0  0
    3.7320   -6.0000    0.0000 C   0  0  0  0  0  0  0  0  0  0  0  0
   11.5263    2.5000    0.0000 C   0  0  0  0  0  0  0  0  0  0  0  0
    3.7320   -5.0000    0.0000 C   0  0  0  0  0  0  0  0  0  0  0  0
   11.5263    4.5000    0.0000 C   0  0  0  0  0  0  0  0  0  0  0  0
    9.7942    4.5000    0.0000 C   0  0  0  0  0  0  0  0  0  0  0  0
   11.5263    5.5000    0.0000 C   0  0  0  0  0  0  0  0  0  0  0  0
    9.7942    5.5000    0.0000 C   0  0  0  0  0  0  0  0  0  0  0  0
   10.6603    6.0000    0.0000 C   0  0  0  0  0  0  0  0  0  0  0  0
    2.0000   -5.0000    0.0000 C   0  0  0  0  0  0  0  0  0  0  0  0
   10.6603    7.0000    0.0000 C   0  0  0  0  0  0  0  0  0  0  0  0
    6.1181   -2.9174    0.0000 H   0  0  0  0  0  0  0  0  0  0  0  0
    5.7196   -3.6077    0.0000 H   0  0  0  0  0  0  0  0  0  0  0  0
    8.6728   -3.6077    0.0000 H   0  0  0  0  0  0  0  0  0  0  0  0
    8.2742   -2.9174    0.0000 H   0  0  0  0  0  0  0  0  0  0  0  0
    5.7196   -4.3923    0.0000 H   0  0  0  0  0  0  0  0  0  0  0  0
    6.1181   -5.0826    0.0000 H   0  0  0  0  0  0  0  0  0  0  0  0
    8.2742   -5.0826    0.0000 H   0  0  0  0  0  0  0  0  0  0  0  0
    8.6728   -4.3923    0.0000 H   0  0  0  0  0  0  0  0  0  0  0  0
    6.9841   -1.4174    0.0000 H   0  0  0  0  0  0  0  0  0  0  0  0
    6.5856   -2.1077    0.0000 H   0  0  0  0  0  0  0  0  0  0  0  0
    8.2742   -2.0826    0.0000 H   0  0  0  0  0  0  0  0  0  0  0  0
    8.6728   -1.3923    0.0000 H   0  0  0  0  0  0  0  0  0  0  0  0
    7.8501    0.0826    0.0000 H   0  0  0  0  0  0  0  0  0  0  0  0
    7.4516   -0.6077    0.0000 H   0  0  0  0  0  0  0  0  0  0  0  0
    9.1403   -0.5826    0.0000 H   0  0  0  0  0  0  0  0  0  0  0  0
    9.5388    0.1077    0.0000 H   0  0  0  0  0  0  0  0  0  0  0  0
    8.5991   -6.1900    0.0000 H   0  0  0  0  0  0  0  0  0  0  0  0
    8.7162    1.5826    0.0000 H   0  0  0  0  0  0  0  0  0  0  0  0
    8.3176    0.8923    0.0000 H   0  0  0  0  0  0  0  0  0  0  0  0
    5.7932   -7.8100    0.0000 H   0  0  0  0  0  0  0  0  0  0  0  0
    8.5991   -7.8100    0.0000 H   0  0  0  0  0  0  0  0  0  0  0  0
    7.1962   -8.6200    0.0000 H   0  0  0  0  0  0  0  0  0  0  0  0
   10.6603    2.3800    0.0000 H   0  0  0  0  0  0  0  0  0  0  0  0
    9.2573    2.8100    0.0000 H   0  0  0  0  0  0  0  0  0  0  0  0
    6.0010   -4.6900    0.0000 H   0  0  0  0  0  0  0  0  0  0  0  0
    4.5981   -7.1200    0.0000 H   0  0  0  0  0  0  0  0  0  0  0  0
    4.5981   -3.8800    0.0000 H   0  0  0  0  0  0  0  0  0  0  0  0
    3.1951   -6.3100    0.0000 H   0  0  0  0  0  0  0  0  0  0  0  0
   11.2163    1.9631    0.0000 H   0  0  0  0  0  0  0  0  0  0  0  0
   12.0632    2.1900    0.0000 H   0  0  0  0  0  0  0  0  0  0  0  0
   11.8363    3.0369    0.0000 H   0  0  0  0  0  0  0  0  0  0  0  0
   12.0632    4.1900    0.0000 H   0  0  0  0  0  0  0  0  0  0  0  0
    9.2573    4.1900    0.0000 H   0  0  0  0  0  0  0  0  0  0  0  0
   12.0632    5.8100    0.0000 H   0  0  0  0  0  0  0  0  0  0  0  0
    9.2573    5.8100    0.0000 H   0  0  0  0  0  0  0  0  0  0  0  0
    1.6900   -4.4631    0.0000 H   0  0  0  0  0  0  0  0  0  0  0  0
    1.4631   -5.3100    0.0000 H   0  0  0  0  0  0  0  0  0  0  0  0
    2.3100   -5.5369    0.0000 H   0  0  0  0  0  0  0  0  0  0  0  0
  1 22  2  0  0  0  0
  2 31  1  0  0  0  0
  2 37  1  0  0  0  0
  3  7  1  0  0  0  0
  3  8  1  0  0  0  0
  3 11  1  0  0  0  0
  4  9  1  0  0  0  0
  4 10  1  0  0  0  0
  4 13  1  0  0  0  0
  5 22  1  0  0  0  0
 24  5  1  1  0  0  0
  5 62  1  0  0  0  0
  6 38  3  0  0  0  0
  7  9  1  0  0  0  0
  7 39  1  0  0  0  0
  7 40  1  0  0  0  0
  8 10  1  0  0  0  0
  8 41  1  0  0  0  0
  8 42  1  0  0  0  0
  9 43  1  0  0  0  0
  9 44  1  0  0  0  0
 10 45  1  0  0  0  0
 10 46  1  0  0  0  0
 11 12  1  0  0  0  0
 11 47  1  0  0  0  0
 11 48  1  0  0  0  0
 12 14  1  0  0  0  0
 12 49  1  0  0  0  0
 12 50  1  0  0  0  0
 13 16  1  0  0  0  0
 13 17  2  0  0  0  0
 14 15  1  0  0  0  0
 14 51  1  0  0  0  0
 14 52  1  0  0  0  0
 15 18  1  0  0  0  0
 15 53  1  0  0  0  0
 15 54  1  0  0  0  0
 16 19  1  0  0  0  0
 16 20  2  0  0  0  0
 17 21  1  0  0  0  0
 17 55  1  0  0  0  0
 18 22  1  0  0  0  0
 18 56  1  0  0  0  0
 18 57  1  0  0  0  0
 19 25  2  0  0  0  0
 19 26  1  0  0  0  0
 20 23  1  0  0  0  0
 20 58  1  0  0  0  0
 21 23  2  0  0  0  0
 21 59  1  0  0  0  0
 23 60  1  0  0  0  0
 24 27  1  0  0  0  0
 24 30  1  0  0  0  0
 24 61  1  0  0  0  0
 25 28  1  0  0  0  0
 25 63  1  0  0  0  0
 26 29  2  0  0  0  0
 26 64  1  0  0  0  0
 27 32  2  0  0  0  0
 27 33  1  0  0  0  0
 28 31  2  0  0  0  0
 28 65  1  0  0  0  0
 29 31  1  0  0  0  0
 29 66  1  0  0  0  0
 30 67  1  0  0  0  0
 30 68  1  0  0  0  0
 30 69  1  0  0  0  0
 32 34  1  0  0  0  0
 32 70  1  0  0  0  0
 33 35  2  0  0  0  0
 33 71  1  0  0  0  0
 34 36  2  0  0  0  0
 34 72  1  0  0  0  0
 35 36  1  0  0  0  0
 35 73  1  0  0  0  0
 36 38  1  0  0  0  0
 37 74  1  0  0  0  0
 37 75  1  0  0  0  0
 37 76  1  0  0  0  0
M  END
> <PUBCHEM_COMPOUND_CID>
134153716

> <PUBCHEM_COMPOUND_CANONICALIZED>
1

> <PUBCHEM_CACTVS_COMPLEXITY>
742

> <PUBCHEM_CACTVS_HBOND_ACCEPTOR>
5

> <PUBCHEM_CACTVS_HBOND_DONOR>
1

> <PUBCHEM_CACTVS_ROTATABLE_BOND>
11

> <PUBCHEM_CACTVS_SUBSKEYS>
AAADcfB/sAAAAAAAAAAAAAAAAAAAAAAAAAA8YMEAAAAAAAABUAAAHgAQAAAADCzBmAYyxoPABACYBiVSUACiCAAhIgAIiIEObIgM5jLEsZuUMChk1hHI6A+YyPAO4AAAAAACAADAAAAAAAQAAAAAAAAAAA==

> <PUBCHEM_IUPAC_OPENEYE_NAME>
N-[(1R)-1-(4-cyanophenyl)ethyl]-6-[4-[2-(4-methoxyphenyl)phenyl]piperazin-1-yl]hexanamide

> <PUBCHEM_IUPAC_CAS_NAME>
N-[(1R)-1-(4-cyanophenyl)ethyl]-6-[4-[2-(4-methoxyphenyl)phenyl]-1-piperazinyl]hexanamide

> <PUBCHEM_IUPAC_NAME_MARKUP>
<I>N</I>-[(1<I>R</I>)-1-(4-cyanophenyl)ethyl]-6-[4-[2-(4-methoxyphenyl)phenyl]piperazin-1-yl]hexanamide

> <PUBCHEM_IUPAC_NAME>
N-[(1R)-1-(4-cyanophenyl)ethyl]-6-[4-[2-(4-methoxyphenyl)phenyl]piperazin-1-yl]hexanamide

> <PUBCHEM_IUPAC_SYSTEMATIC_NAME>
N-[(1R)-1-(4-cyanophenyl)ethyl]-6-[4-[2-(4-methoxyphenyl)phenyl]piperazin-1-yl]hexanamide

> <PUBCHEM_IUPAC_TRADITIONAL_NAME>
N-[(1R)-1-(4-cyanophenyl)ethyl]-6-[4-[2-(4-methoxyphenyl)phenyl]piperazino]hexanamide

> <PUBCHEM_IUPAC_INCHI>
InChI=1S/C32H38N4O2/c1-25(27-13-11-26(24-33)12-14-27)34-32(37)10-4-3-7-19-35-20-22-36(23-21-35)31-9-6-5-8-30(31)28-15-17-29(38-2)18-16-28/h5-6,8-9,11-18,25H,3-4,7,10,19-23H2,1-2H3,(H,34,37)/t25-/m1/s1

> <PUBCHEM_IUPAC_INCHIKEY>
LPOLFZKIDWJURQ-RUZDIDTESA-N

> <PUBCHEM_XLOGP3_AA>
5.4

> <PUBCHEM_EXACT_MASS>
510.29947647

> <PUBCHEM_MOLECULAR_FORMULA>
C32H38N4O2

> <PUBCHEM_MOLECULAR_WEIGHT>
510.7

> <PUBCHEM_OPENEYE_CAN_SMILES>
CC(C1=CC=C(C=C1)C#N)NC(=O)CCCCCN2CCN(CC2)C3=CC=CC=C3C4=CC=C(C=C4)OC

> <PUBCHEM_OPENEYE_ISO_SMILES>
C[C@H](C1=CC=C(C=C1)C#N)NC(=O)CCCCCN2CCN(CC2)C3=CC=CC=C3C4=CC=C(C=C4)OC

> <PUBCHEM_CACTVS_TPSA>
68.6

> <PUBCHEM_MONOISOTOPIC_WEIGHT>
510.29947647

> <PUBCHEM_TOTAL_CHARGE>
0

> <PUBCHEM_HEAVY_ATOM_COUNT>
38

> <PUBCHEM_ATOM_DEF_STEREO_COUNT>
1

> <PUBCHEM_ATOM_UDEF_STEREO_COUNT>
0

> <PUBCHEM_BOND_DEF_STEREO_COUNT>
0

> <PUBCHEM_BOND_UDEF_STEREO_COUNT>
0

> <PUBCHEM_ISOTOPIC_ATOM_COUNT>
0

> <PUBCHEM_COMPONENT_COUNT>
1

> <PUBCHEM_CACTVS_TAUTO_COUNT>
-1

> <PUBCHEM_COORDINATE_TYPE>
1
5
255

> <PUBCHEM_BONDANNOTATIONS>
13  16  8
13  17  8
16  20  8
17  21  8
19  25  8
19  26  8
20  23  8
21  23  8
25  28  8
26  29  8
27  32  8
27  33  8
28  31  8
29  31  8
32  34  8
33  35  8
34  36  8
35  36  8
24  5  5

$$$$
