5311416
  -OEChem-09292322202D

 70 73  0     0  0  0  0  0  0999 V2000
    6.3301   -5.5950    0.0000 Cl  0  0  0  0  0  0  0  0  0  0  0  0
    8.9282   -2.0950    0.0000 O   0  0  0  0  0  0  0  0  0  0  0  0
    9.8222   -3.5603    0.0000 O   0  0  0  0  0  0  0  0  0  0  0  0
    9.8222   -5.6297    0.0000 O   0  0  0  0  0  0  0  0  0  0  0  0
    4.5981    5.4050    0.0000 O   0  0  0  0  0  0  0  0  0  0  0  0
    2.8660    6.4050    0.0000 O   0  0  0  0  0  0  0  0  0  0  0  0
    4.5981    0.4050    0.0000 N   0  0  0  0  0  0  0  0  0  0  0  0
    8.0622   -6.5950    0.0000 N   0  0  0  0  0  0  0  0  0  0  0  0
    6.3301   -0.5950    0.0000 C   0  0  0  0  0  0  0  0  0  0  0  0
    5.4641   -1.0950    0.0000 C   0  0  0  0  0  0  0  0  0  0  0  0
    6.3301    0.4050    0.0000 C   0  0  0  0  0  0  0  0  0  0  0  0
    4.5981   -0.5950    0.0000 C   0  0  0  0  0  0  0  0  0  0  0  0
    5.4641    0.9050    0.0000 C   0  0  0  0  0  0  0  0  0  0  0  0
    7.1962   -1.0950    0.0000 C   0  0  0  0  0  0  0  0  0  0  0  0
    3.7320    0.9050    0.0000 C   0  0  0  0  0  0  0  0  0  0  0  0
    7.1962   -2.0950    0.0000 C   0  0  0  0  0  0  0  0  0  0  0  0
    3.7320    1.9050    0.0000 C   0  0  0  0  0  0  0  0  0  0  0  0
    2.8660    2.4050    0.0000 C   0  0  0  0  0  0  0  0  0  0  0  0
    8.0622   -2.5950    0.0000 C   0  0  0  0  0  0  0  0  0  0  0  0
    8.0622   -3.5950    0.0000 C   0  0  0  0  0  0  0  0  0  0  0  0
    2.8660    3.4050    0.0000 C   0  0  0  0  0  0  0  0  0  0  0  0
    8.9282   -4.0950    0.0000 C   0  0  0  0  0  0  0  0  0  0  0  0
    7.1962   -4.0950    0.0000 C   0  0  0  0  0  0  0  0  0  0  0  0
    3.7320    3.9050    0.0000 C   0  0  0  0  0  0  0  0  0  0  0  0
    2.0000    3.9050    0.0000 C   0  0  0  0  0  0  0  0  0  0  0  0
    8.9282   -5.0950    0.0000 C   0  0  0  0  0  0  0  0  0  0  0  0
    7.1962   -5.0950    0.0000 C   0  0  0  0  0  0  0  0  0  0  0  0
    8.0622   -5.5950    0.0000 C   0  0  0  0  0  0  0  0  0  0  0  0
    3.7320    4.9050    0.0000 C   0  0  0  0  0  0  0  0  0  0  0  0
    2.0000    4.9050    0.0000 C   0  0  0  0  0  0  0  0  0  0  0  0
   10.7282   -4.0742    0.0000 C   0  0  0  0  0  0  0  0  0  0  0  0
    2.8660    5.4050    0.0000 C   0  0  0  0  0  0  0  0  0  0  0  0
   10.7282   -5.1158    0.0000 C   0  0  0  0  0  0  0  0  0  0  0  0
    4.5981    6.4050    0.0000 C   0  0  0  0  0  0  0  0  0  0  0  0
    2.0000    6.9050    0.0000 C   0  0  0  0  0  0  0  0  0  0  0  0
    6.8671   -0.2850    0.0000 H   0  0  0  0  0  0  0  0  0  0  0  0
    5.0656   -1.5700    0.0000 H   0  0  0  0  0  0  0  0  0  0  0  0
    5.8626   -1.5700    0.0000 H   0  0  0  0  0  0  0  0  0  0  0  0
    6.9407    0.2973    0.0000 H   0  0  0  0  0  0  0  0  0  0  0  0
    6.5422    0.9876    0.0000 H   0  0  0  0  0  0  0  0  0  0  0  0
    3.9875   -0.4873    0.0000 H   0  0  0  0  0  0  0  0  0  0  0  0
    4.3860   -1.1776    0.0000 H   0  0  0  0  0  0  0  0  0  0  0  0
    5.8626    1.3800    0.0000 H   0  0  0  0  0  0  0  0  0  0  0  0
    5.0656    1.3800    0.0000 H   0  0  0  0  0  0  0  0  0  0  0  0
    7.8067   -1.2027    0.0000 H   0  0  0  0  0  0  0  0  0  0  0  0
    7.4082   -0.5124    0.0000 H   0  0  0  0  0  0  0  0  0  0  0  0
    3.1215    1.0127    0.0000 H   0  0  0  0  0  0  0  0  0  0  0  0
    3.5200    0.3224    0.0000 H   0  0  0  0  0  0  0  0  0  0  0  0
    6.5856   -1.9873    0.0000 H   0  0  0  0  0  0  0  0  0  0  0  0
    6.9841   -2.6776    0.0000 H   0  0  0  0  0  0  0  0  0  0  0  0
    4.3426    1.7973    0.0000 H   0  0  0  0  0  0  0  0  0  0  0  0
    3.9441    2.4876    0.0000 H   0  0  0  0  0  0  0  0  0  0  0  0
    2.2554    2.5127    0.0000 H   0  0  0  0  0  0  0  0  0  0  0  0
    2.6540    1.8224    0.0000 H   0  0  0  0  0  0  0  0  0  0  0  0
    6.6592   -3.7850    0.0000 H   0  0  0  0  0  0  0  0  0  0  0  0
    4.2690    3.5950    0.0000 H   0  0  0  0  0  0  0  0  0  0  0  0
    1.4631    3.5950    0.0000 H   0  0  0  0  0  0  0  0  0  0  0  0
    1.4631    5.2150    0.0000 H   0  0  0  0  0  0  0  0  0  0  0  0
   11.3391   -4.1803    0.0000 H   0  0  0  0  0  0  0  0  0  0  0  0
   10.9373   -3.4905    0.0000 H   0  0  0  0  0  0  0  0  0  0  0  0
   10.9373   -5.6995    0.0000 H   0  0  0  0  0  0  0  0  0  0  0  0
   11.3391   -5.0097    0.0000 H   0  0  0  0  0  0  0  0  0  0  0  0
    7.5252   -6.9050    0.0000 H   0  0  0  0  0  0  0  0  0  0  0  0
    8.5991   -6.9050    0.0000 H   0  0  0  0  0  0  0  0  0  0  0  0
    5.2181    6.4050    0.0000 H   0  0  0  0  0  0  0  0  0  0  0  0
    4.5981    7.0250    0.0000 H   0  0  0  0  0  0  0  0  0  0  0  0
    3.9781    6.4050    0.0000 H   0  0  0  0  0  0  0  0  0  0  0  0
    2.3100    7.4419    0.0000 H   0  0  0  0  0  0  0  0  0  0  0  0
    1.4631    7.2150    0.0000 H   0  0  0  0  0  0  0  0  0  0  0  0
    1.6900    6.3681    0.0000 H   0  0  0  0  0  0  0  0  0  0  0  0
  1 27  1  0  0  0  0
  2 19  2  0  0  0  0
  3 22  1  0  0  0  0
  3 31  1  0  0  0  0
  4 26  1  0  0  0  0
  4 33  1  0  0  0  0
  5 29  1  0  0  0  0
  5 34  1  0  0  0  0
  6 32  1  0  0  0  0
  6 35  1  0  0  0  0
  7 12  1  0  0  0  0
  7 13  1  0  0  0  0
  7 15  1  0  0  0  0
  8 28  1  0  0  0  0
  8 63  1  0  0  0  0
  8 64  1  0  0  0  0
  9 10  1  0  0  0  0
  9 11  1  0  0  0  0
  9 14  1  0  0  0  0
  9 36  1  0  0  0  0
 10 12  1  0  0  0  0
 10 37  1  0  0  0  0
 10 38  1  0  0  0  0
 11 13  1  0  0  0  0
 11 39  1  0  0  0  0
 11 40  1  0  0  0  0
 12 41  1  0  0  0  0
 12 42  1  0  0  0  0
 13 43  1  0  0  0  0
 13 44  1  0  0  0  0
 14 16  1  0  0  0  0
 14 45  1  0  0  0  0
 14 46  1  0  0  0  0
 15 17  1  0  0  0  0
 15 47  1  0  0  0  0
 15 48  1  0  0  0  0
 16 19  1  0  0  0  0
 16 49  1  0  0  0  0
 16 50  1  0  0  0  0
 17 18  1  0  0  0  0
 17 51  1  0  0  0  0
 17 52  1  0  0  0  0
 18 21  1  0  0  0  0
 18 53  1  0  0  0  0
 18 54  1  0  0  0  0
 19 20  1  0  0  0  0
 20 22  1  0  0  0  0
 20 23  2  0  0  0  0
 21 24  2  0  0  0  0
 21 25  1  0  0  0  0
 22 26  2  0  0  0  0
 23 27  1  0  0  0  0
 23 55  1  0  0  0  0
 24 29  1  0  0  0  0
 24 56  1  0  0  0  0
 25 30  2  0  0  0  0
 25 57  1  0  0  0  0
 26 28  1  0  0  0  0
 27 28  2  0  0  0  0
 29 32  2  0  0  0  0
 30 32  1  0  0  0  0
 30 58  1  0  0  0  0
 31 33  1  0  0  0  0
 31 59  1  0  0  0  0
 31 60  1  0  0  0  0
 33 61  1  0  0  0  0
 33 62  1  0  0  0  0
 34 65  1  0  0  0  0
 34 66  1  0  0  0  0
 34 67  1  0  0  0  0
 35 68  1  0  0  0  0
 35 69  1  0  0  0  0
 35 70  1  0  0  0  0
M  END
> <PUBCHEM_COMPOUND_CID>
5311416

> <PUBCHEM_COMPOUND_CANONICALIZED>
1

> <PUBCHEM_CACTVS_COMPLEXITY>
662

> <PUBCHEM_CACTVS_HBOND_ACCEPTOR>
7

> <PUBCHEM_CACTVS_HBOND_DONOR>
1

> <PUBCHEM_CACTVS_ROTATABLE_BOND>
10

> <PUBCHEM_CACTVS_SUBSKEYS>
AAADcfB7OAAEAAAAAAAAAAAAAAAAAAAAAAA8aIEAAAAAAACRQAAAHgIQAAAADQ7hmCYyxoNABACIAqRSQACCCAAkJQAIiAEPzsgPJjaFt5uHOWLm4BmK6Yea2fGeKCABIwAIUBBQQAJGABCgIAAAAAAAAA==

> <PUBCHEM_IUPAC_OPENEYE_NAME>
1-(5-amino-6-chloro-2,3-dihydro-1,4-benzodioxin-8-yl)-3-[1-[3-(3,4-dimethoxyphenyl)propyl]-4-piperidyl]propan-1-one

> <PUBCHEM_IUPAC_CAS_NAME>
1-(5-amino-6-chloro-2,3-dihydro-1,4-benzodioxin-8-yl)-3-[1-[3-(3,4-dimethoxyphenyl)propyl]-4-piperidinyl]-1-propanone

> <PUBCHEM_IUPAC_NAME_MARKUP>
1-(5-amino-6-chloro-2,3-dihydro-1,4-benzodioxin-8-yl)-3-[1-[3-(3,4-dimethoxyphenyl)propyl]piperidin-4-yl]propan-1-one

> <PUBCHEM_IUPAC_NAME>
1-(5-amino-6-chloro-2,3-dihydro-1,4-benzodioxin-8-yl)-3-[1-[3-(3,4-dimethoxyphenyl)propyl]piperidin-4-yl]propan-1-one

> <PUBCHEM_IUPAC_SYSTEMATIC_NAME>
1-(5-azanyl-6-chloranyl-2,3-dihydro-1,4-benzodioxin-8-yl)-3-[1-[3-(3,4-dimethoxyphenyl)propyl]piperidin-4-yl]propan-1-one

> <PUBCHEM_IUPAC_TRADITIONAL_NAME>
1-(5-amino-6-chloro-2,3-dihydro-1,4-benzodioxin-8-yl)-3-[1-[3-(3,4-dimethoxyphenyl)propyl]-4-piperidyl]propan-1-one

> <PUBCHEM_IUPAC_INCHI>
InChI=1S/C27H35ClN2O5/c1-32-23-8-6-19(16-24(23)33-2)4-3-11-30-12-9-18(10-13-30)5-7-22(31)20-17-21(28)25(29)27-26(20)34-14-15-35-27/h6,8,16-18H,3-5,7,9-15,29H2,1-2H3

> <PUBCHEM_IUPAC_INCHIKEY>
UVOCSZKGWJOKNN-UHFFFAOYSA-N

> <PUBCHEM_XLOGP3_AA>
4.6

> <PUBCHEM_EXACT_MASS>
502.2234499

> <PUBCHEM_MOLECULAR_FORMULA>
C27H35ClN2O5

> <PUBCHEM_MOLECULAR_WEIGHT>
503.0

> <PUBCHEM_OPENEYE_CAN_SMILES>
COC1=C(C=C(C=C1)CCCN2CCC(CC2)CCC(=O)C3=CC(=C(C4=C3OCCO4)N)Cl)OC

> <PUBCHEM_OPENEYE_ISO_SMILES>
COC1=C(C=C(C=C1)CCCN2CCC(CC2)CCC(=O)C3=CC(=C(C4=C3OCCO4)N)Cl)OC

> <PUBCHEM_CACTVS_TPSA>
83.2

> <PUBCHEM_MONOISOTOPIC_WEIGHT>
502.2234499

> <PUBCHEM_TOTAL_CHARGE>
0

> <PUBCHEM_HEAVY_ATOM_COUNT>
35

> <PUBCHEM_ATOM_DEF_STEREO_COUNT>
0

> <PUBCHEM_ATOM_UDEF_STEREO_COUNT>
0

> <PUBCHEM_BOND_DEF_STEREO_COUNT>
0

> <PUBCHEM_BOND_UDEF_STEREO_COUNT>
0

> <PUBCHEM_ISOTOPIC_ATOM_COUNT>
0

> <PUBCHEM_COMPONENT_COUNT>
1

> <PUBCHEM_CACTVS_TAUTO_COUNT>
-1

> <PUBCHEM_COORDINATE_TYPE>
1
5
255

> <PUBCHEM_BONDANNOTATIONS>
20  22  8
20  23  8
21  24  8
21  25  8
22  26  8
23  27  8
24  29  8
25  30  8
26  28  8
27  28  8
29  32  8
30  32  8

$$$$
