118626120
  -OEChem-09292322392D

 68 73  0     1  0  0  0  0  0999 V2000
    4.6660   -0.0323    0.0000 S   0  0  0  0  0  0  0  0  0  0  0  0
    5.6660   -0.0323    0.0000 O   0  0  0  0  0  0  0  0  0  0  0  0
    3.6660   -0.0323    0.0000 O   0  0  0  0  0  0  0  0  0  0  0  0
   11.4844    2.3641    0.0000 O   0  0  0  0  0  0  0  0  0  0  0  0
   13.4524    1.7246    0.0000 O   0  0  0  0  0  0  0  0  0  0  0  0
    4.6660    0.9677    0.0000 N   0  0  3  0  0  0  0  0  0  0  0  0
    8.1203    1.6066    0.0000 N   0  0  0  0  0  0  0  0  0  0  0  0
   10.0224    0.9885    0.0000 N   0  0  0  0  0  0  0  0  0  0  0  0
    5.5321   -2.5323    0.0000 N   0  0  0  0  0  0  0  0  0  0  0  0
    5.4751    1.5555    0.0000 C   0  0  1  0  0  0  0  0  0  0  0  0
    5.1660    2.5065    0.0000 C   0  0  0  0  0  0  0  0  0  0  0  0
    6.4261    1.2464    0.0000 C   0  0  0  0  0  0  0  0  0  0  0  0
    4.1660    2.5065    0.0000 C   0  0  0  0  0  0  0  0  0  0  0  0
    3.8570    1.5555    0.0000 C   0  0  0  0  0  0  0  0  0  0  0  0
    7.1692    1.9156    0.0000 C   0  0  0  0  0  0  0  0  0  0  0  0
    8.3282    0.6284    0.0000 C   0  0  0  0  0  0  0  0  0  0  0  0
    8.8634    2.2757    0.0000 C   0  0  0  0  0  0  0  0  0  0  0  0
    9.2793    0.3194    0.0000 C   0  0  0  0  0  0  0  0  0  0  0  0
    9.8145    1.9667    0.0000 C   0  0  0  0  0  0  0  0  0  0  0  0
    4.6660   -1.0323    0.0000 C   0  0  0  0  0  0  0  0  0  0  0  0
   10.9735    0.6795    0.0000 C   0  0  0  0  0  0  0  0  0  0  0  0
    3.8000   -1.5323    0.0000 C   0  0  0  0  0  0  0  0  0  0  0  0
    5.5321   -1.5323    0.0000 C   0  0  0  0  0  0  0  0  0  0  0  0
   11.7166    1.3486    0.0000 C   0  0  0  0  0  0  0  0  0  0  0  0
    3.8000   -2.5323    0.0000 C   0  0  0  0  0  0  0  0  0  0  0  0
   11.1814   -0.2986    0.0000 C   0  0  0  0  0  0  0  0  0  0  0  0
    2.9061   -0.9977    0.0000 C   0  0  0  0  0  0  0  0  0  0  0  0
   12.6677    1.0396    0.0000 C   0  0  0  0  0  0  0  0  0  0  0  0
    4.6660   -3.0323    0.0000 C   0  0  0  0  0  0  0  0  0  0  0  0
   12.1324   -0.6077    0.0000 C   0  0  0  0  0  0  0  0  0  0  0  0
    2.9061   -3.0670    0.0000 C   0  0  0  0  0  0  0  0  0  0  0  0
   12.8756    0.0615    0.0000 C   0  0  0  0  0  0  0  0  0  0  0  0
    2.0000   -1.5115    0.0000 C   0  0  0  0  0  0  0  0  0  0  0  0
   12.2531    3.0670    0.0000 C   0  0  0  0  0  0  0  0  0  0  0  0
   13.2437    2.7451    0.0000 C   0  0  0  0  0  0  0  0  0  0  0  0
    2.0000   -2.5531    0.0000 C   0  0  0  0  0  0  0  0  0  0  0  0
    5.5720    0.9431    0.0000 H   0  0  0  0  0  0  0  0  0  0  0  0
    5.7725    2.6354    0.0000 H   0  0  0  0  0  0  0  0  0  0  0  0
    5.1012    3.1231    0.0000 H   0  0  0  0  0  0  0  0  0  0  0  0
    6.1350    0.6990    0.0000 H   0  0  0  0  0  0  0  0  0  0  0  0
    6.9147    0.8647    0.0000 H   0  0  0  0  0  0  0  0  0  0  0  0
    4.2308    3.1231    0.0000 H   0  0  0  0  0  0  0  0  0  0  0  0
    3.5596    2.6354    0.0000 H   0  0  0  0  0  0  0  0  0  0  0  0
    3.2906    1.8076    0.0000 H   0  0  0  0  0  0  0  0  0  0  0  0
    3.5470    1.0185    0.0000 H   0  0  0  0  0  0  0  0  0  0  0  0
    7.4603    2.4630    0.0000 H   0  0  0  0  0  0  0  0  0  0  0  0
    6.6807    2.2973    0.0000 H   0  0  0  0  0  0  0  0  0  0  0  0
    7.7086    0.6068    0.0000 H   0  0  0  0  0  0  0  0  0  0  0  0
    8.2419    0.0144    0.0000 H   0  0  0  0  0  0  0  0  0  0  0  0
    9.1545    2.8231    0.0000 H   0  0  0  0  0  0  0  0  0  0  0  0
    8.3749    2.6574    0.0000 H   0  0  0  0  0  0  0  0  0  0  0  0
    8.9882   -0.2280    0.0000 H   0  0  0  0  0  0  0  0  0  0  0  0
    9.7678   -0.0623    0.0000 H   0  0  0  0  0  0  0  0  0  0  0  0
   10.4341    1.9883    0.0000 H   0  0  0  0  0  0  0  0  0  0  0  0
    9.9008    2.5806    0.0000 H   0  0  0  0  0  0  0  0  0  0  0  0
    6.0690   -1.2223    0.0000 H   0  0  0  0  0  0  0  0  0  0  0  0
   10.7206   -0.7135    0.0000 H   0  0  0  0  0  0  0  0  0  0  0  0
    2.9132   -0.3777    0.0000 H   0  0  0  0  0  0  0  0  0  0  0  0
    4.6660   -3.6523    0.0000 H   0  0  0  0  0  0  0  0  0  0  0  0
   12.2614   -1.2141    0.0000 H   0  0  0  0  0  0  0  0  0  0  0  0
   13.4652   -0.1301    0.0000 H   0  0  0  0  0  0  0  0  0  0  0  0
    2.9132   -3.6869    0.0000 H   0  0  0  0  0  0  0  0  0  0  0  0
    1.4643   -1.1994    0.0000 H   0  0  0  0  0  0  0  0  0  0  0  0
   12.5427    3.6152    0.0000 H   0  0  0  0  0  0  0  0  0  0  0  0
   11.7625    3.4462    0.0000 H   0  0  0  0  0  0  0  0  0  0  0  0
   13.8634    2.7636    0.0000 H   0  0  0  0  0  0  0  0  0  0  0  0
   13.3316    3.3588    0.0000 H   0  0  0  0  0  0  0  0  0  0  0  0
    1.4643   -2.8652    0.0000 H   0  0  0  0  0  0  0  0  0  0  0  0
  1  2  2  0  0  0  0
  1  3  2  0  0  0  0
  1  6  1  0  0  0  0
  1 20  1  0  0  0  0
  4 24  1  0  0  0  0
  4 34  1  0  0  0  0
  5 28  1  0  0  0  0
  5 35  1  0  0  0  0
  6 10  1  0  0  0  0
  6 14  1  0  0  0  0
  7 15  1  0  0  0  0
  7 16  1  0  0  0  0
  7 17  1  0  0  0  0
  8 18  1  0  0  0  0
  8 19  1  0  0  0  0
  8 21  1  0  0  0  0
  9 23  1  0  0  0  0
  9 29  2  0  0  0  0
 10 11  1  0  0  0  0
 10 12  1  1  0  0  0
 10 37  1  0  0  0  0
 11 13  1  0  0  0  0
 11 38  1  0  0  0  0
 11 39  1  0  0  0  0
 12 15  1  0  0  0  0
 12 40  1  0  0  0  0
 12 41  1  0  0  0  0
 13 14  1  0  0  0  0
 13 42  1  0  0  0  0
 13 43  1  0  0  0  0
 14 44  1  0  0  0  0
 14 45  1  0  0  0  0
 15 46  1  0  0  0  0
 15 47  1  0  0  0  0
 16 18  1  0  0  0  0
 16 48  1  0  0  0  0
 16 49  1  0  0  0  0
 17 19  1  0  0  0  0
 17 50  1  0  0  0  0
 17 51  1  0  0  0  0
 18 52  1  0  0  0  0
 18 53  1  0  0  0  0
 19 54  1  0  0  0  0
 19 55  1  0  0  0  0
 20 22  1  0  0  0  0
 20 23  2  0  0  0  0
 21 24  2  0  0  0  0
 21 26  1  0  0  0  0
 22 25  1  0  0  0  0
 22 27  2  0  0  0  0
 23 56  1  0  0  0  0
 24 28  1  0  0  0  0
 25 29  1  0  0  0  0
 25 31  2  0  0  0  0
 26 30  2  0  0  0  0
 26 57  1  0  0  0  0
 27 33  1  0  0  0  0
 27 58  1  0  0  0  0
 28 32  2  0  0  0  0
 29 59  1  0  0  0  0
 30 32  1  0  0  0  0
 30 60  1  0  0  0  0
 31 36  1  0  0  0  0
 31 62  1  0  0  0  0
 32 61  1  0  0  0  0
 33 36  2  0  0  0  0
 33 63  1  0  0  0  0
 34 35  1  0  0  0  0
 34 64  1  0  0  0  0
 34 65  1  0  0  0  0
 35 66  1  0  0  0  0
 35 67  1  0  0  0  0
 36 68  1  0  0  0  0
M  END
> <PUBCHEM_COMPOUND_CID>
118626120

> <PUBCHEM_COMPOUND_CANONICALIZED>
1

> <PUBCHEM_CACTVS_COMPLEXITY>
830

> <PUBCHEM_CACTVS_HBOND_ACCEPTOR>
8

> <PUBCHEM_CACTVS_HBOND_DONOR>
0

> <PUBCHEM_CACTVS_ROTATABLE_BOND>
6

> <PUBCHEM_CACTVS_SUBSKEYS>
AAADcfB7uABAAAAAAAAAAAAAAAAAAWAAAAA8eJECAAAAAACx9AAAHgQAQAAADCzh2gY8x9MIFAKgAjRnRHDCiDAxIiAI2Dwv7JgPZuLE8ZuXOCrmwBna6AeQ0IMOgAAAAgAQUAAAAAAEACCgAAAAAAAAAA==

> <PUBCHEM_IUPAC_OPENEYE_NAME>
4-[(2S)-2-[2-[4-(2,3-dihydro-1,4-benzodioxin-5-yl)piperazin-1-yl]ethyl]pyrrolidin-1-yl]sulfonylisoquinoline

> <PUBCHEM_IUPAC_CAS_NAME>
4-[[(2S)-2-[2-[4-(2,3-dihydro-1,4-benzodioxin-5-yl)-1-piperazinyl]ethyl]-1-pyrrolidinyl]sulfonyl]isoquinoline

> <PUBCHEM_IUPAC_NAME_MARKUP>
4-[(2<I>S</I>)-2-[2-[4-(2,3-dihydro-1,4-benzodioxin-5-yl)piperazin-1-yl]ethyl]pyrrolidin-1-yl]sulfonylisoquinoline

> <PUBCHEM_IUPAC_NAME>
4-[(2S)-2-[2-[4-(2,3-dihydro-1,4-benzodioxin-5-yl)piperazin-1-yl]ethyl]pyrrolidin-1-yl]sulfonylisoquinoline

> <PUBCHEM_IUPAC_SYSTEMATIC_NAME>
4-[(2S)-2-[2-[4-(2,3-dihydro-1,4-benzodioxin-5-yl)piperazin-1-yl]ethyl]pyrrolidin-1-yl]sulfonylisoquinoline

> <PUBCHEM_IUPAC_TRADITIONAL_NAME>
4-[(2S)-2-[2-[4-(2,3-dihydro-1,4-benzodioxin-5-yl)piperazino]ethyl]pyrrolidino]sulfonylisoquinoline

> <PUBCHEM_IUPAC_INCHI>
InChI=1S/C27H32N4O4S/c32-36(33,26-20-28-19-21-5-1-2-7-23(21)26)31-11-4-6-22(31)10-12-29-13-15-30(16-14-29)24-8-3-9-25-27(24)35-18-17-34-25/h1-3,5,7-9,19-20,22H,4,6,10-18H2/t22-/m0/s1

> <PUBCHEM_IUPAC_INCHIKEY>
ZMKYGECKCHAFQG-QFIPXVFZSA-N

> <PUBCHEM_XLOGP3_AA>
3.5

> <PUBCHEM_EXACT_MASS>
508.21442669

> <PUBCHEM_MOLECULAR_FORMULA>
C27H32N4O4S

> <PUBCHEM_MOLECULAR_WEIGHT>
508.6

> <PUBCHEM_OPENEYE_CAN_SMILES>
C1CC(N(C1)S(=O)(=O)C2=CN=CC3=CC=CC=C32)CCN4CCN(CC4)C5=C6C(=CC=C5)OCCO6

> <PUBCHEM_OPENEYE_ISO_SMILES>
C1C[C@H](N(C1)S(=O)(=O)C2=CN=CC3=CC=CC=C32)CCN4CCN(CC4)C5=C6C(=CC=C5)OCCO6

> <PUBCHEM_CACTVS_TPSA>
83.6

> <PUBCHEM_MONOISOTOPIC_WEIGHT>
508.21442669

> <PUBCHEM_TOTAL_CHARGE>
0

> <PUBCHEM_HEAVY_ATOM_COUNT>
36

> <PUBCHEM_ATOM_DEF_STEREO_COUNT>
1

> <PUBCHEM_ATOM_UDEF_STEREO_COUNT>
0

> <PUBCHEM_BOND_DEF_STEREO_COUNT>
0

> <PUBCHEM_BOND_UDEF_STEREO_COUNT>
0

> <PUBCHEM_ISOTOPIC_ATOM_COUNT>
0

> <PUBCHEM_COMPONENT_COUNT>
1

> <PUBCHEM_CACTVS_TAUTO_COUNT>
-1

> <PUBCHEM_COORDINATE_TYPE>
1
5
255

> <PUBCHEM_BONDANNOTATIONS>
10  12  5
20  22  8
20  23  8
21  24  8
21  26  8
22  25  8
22  27  8
24  28  8
25  29  8
25  31  8
26  30  8
27  33  8
28  32  8
30  32  8
31  36  8
33  36  8
9  23  8
9  29  8

$$$$
