10714184
  -OEChem-09292322132D

 50 52  0     0  0  0  0  0  0999 V2000
   10.5981    2.6645    0.0000 Cl  0  0  0  0  0  0  0  0  0  0  0  0
    4.5981    2.6645    0.0000 O   0  0  0  0  0  0  0  0  0  0  0  0
    6.0981    3.5306    0.0000 O   0  0  0  0  0  0  0  0  0  0  0  0
    4.5981   -1.0675    0.0000 N   0  0  0  0  0  0  0  0  0  0  0  0
    4.5981    0.9325    0.0000 C   0  0  0  0  0  0  0  0  0  0  0  0
    5.4641    0.4325    0.0000 C   0  0  0  0  0  0  0  0  0  0  0  0
    3.7320    0.4325    0.0000 C   0  0  0  0  0  0  0  0  0  0  0  0
    5.4641   -0.5675    0.0000 C   0  0  0  0  0  0  0  0  0  0  0  0
    3.7320   -0.5675    0.0000 C   0  0  0  0  0  0  0  0  0  0  0  0
    4.0981    1.7985    0.0000 C   0  0  0  0  0  0  0  0  0  0  0  0
    5.0981    1.7985    0.0000 C   0  0  0  0  0  0  0  0  0  0  0  0
    4.5981   -2.0675    0.0000 C   0  0  0  0  0  0  0  0  0  0  0  0
    3.7320   -2.5675    0.0000 C   0  0  0  0  0  0  0  0  0  0  0  0
    6.0981    1.7985    0.0000 C   0  0  0  0  0  0  0  0  0  0  0  0
    6.5981    2.6645    0.0000 C   0  0  0  0  0  0  0  0  0  0  0  0
    3.7320   -3.5675    0.0000 C   0  0  0  0  0  0  0  0  0  0  0  0
    2.8660   -2.0675    0.0000 C   0  0  0  0  0  0  0  0  0  0  0  0
    7.5981    2.6645    0.0000 C   0  0  0  0  0  0  0  0  0  0  0  0
    2.8660   -4.0675    0.0000 C   0  0  0  0  0  0  0  0  0  0  0  0
    2.0000   -2.5675    0.0000 C   0  0  0  0  0  0  0  0  0  0  0  0
    2.0000   -3.5675    0.0000 C   0  0  0  0  0  0  0  0  0  0  0  0
    8.0981    1.7985    0.0000 C   0  0  0  0  0  0  0  0  0  0  0  0
    8.0981    3.5306    0.0000 C   0  0  0  0  0  0  0  0  0  0  0  0
    9.0981    1.7985    0.0000 C   0  0  0  0  0  0  0  0  0  0  0  0
    9.0981    3.5306    0.0000 C   0  0  0  0  0  0  0  0  0  0  0  0
    9.5981    2.6645    0.0000 C   0  0  0  0  0  0  0  0  0  0  0  0
    6.0747    0.3248    0.0000 H   0  0  0  0  0  0  0  0  0  0  0  0
    5.6762    1.0151    0.0000 H   0  0  0  0  0  0  0  0  0  0  0  0
    3.5200    1.0151    0.0000 H   0  0  0  0  0  0  0  0  0  0  0  0
    3.1215    0.3248    0.0000 H   0  0  0  0  0  0  0  0  0  0  0  0
    5.6762   -1.1501    0.0000 H   0  0  0  0  0  0  0  0  0  0  0  0
    6.0747   -0.4598    0.0000 H   0  0  0  0  0  0  0  0  0  0  0  0
    3.1215   -0.4598    0.0000 H   0  0  0  0  0  0  0  0  0  0  0  0
    3.5200   -1.1501    0.0000 H   0  0  0  0  0  0  0  0  0  0  0  0
    4.6350    2.1085    0.0000 H   0  0  0  0  0  0  0  0  0  0  0  0
    3.7881    2.3355    0.0000 H   0  0  0  0  0  0  0  0  0  0  0  0
    3.5611    1.4885    0.0000 H   0  0  0  0  0  0  0  0  0  0  0  0
    4.8101   -2.6501    0.0000 H   0  0  0  0  0  0  0  0  0  0  0  0
    5.2087   -1.9598    0.0000 H   0  0  0  0  0  0  0  0  0  0  0  0
    6.4081    1.2616    0.0000 H   0  0  0  0  0  0  0  0  0  0  0  0
    4.2690   -3.8775    0.0000 H   0  0  0  0  0  0  0  0  0  0  0  0
    2.8660   -1.4475    0.0000 H   0  0  0  0  0  0  0  0  0  0  0  0
    2.8660   -4.6875    0.0000 H   0  0  0  0  0  0  0  0  0  0  0  0
    1.4631   -2.2575    0.0000 H   0  0  0  0  0  0  0  0  0  0  0  0
    1.4631   -3.8775    0.0000 H   0  0  0  0  0  0  0  0  0  0  0  0
    6.4081    4.0675    0.0000 H   0  0  0  0  0  0  0  0  0  0  0  0
    7.7881    1.2616    0.0000 H   0  0  0  0  0  0  0  0  0  0  0  0
    7.7881    4.0675    0.0000 H   0  0  0  0  0  0  0  0  0  0  0  0
    9.4081    1.2616    0.0000 H   0  0  0  0  0  0  0  0  0  0  0  0
    9.4081    4.0675    0.0000 H   0  0  0  0  0  0  0  0  0  0  0  0
  1 26  1  0  0  0  0
  2 11  2  0  0  0  0
  3 15  1  0  0  0  0
  3 46  1  0  0  0  0
  4  8  1  0  0  0  0
  4  9  1  0  0  0  0
  4 12  1  0  0  0  0
  5  6  1  0  0  0  0
  5  7  1  0  0  0  0
  5 10  1  0  0  0  0
  5 11  1  0  0  0  0
  6  8  1  0  0  0  0
  6 27  1  0  0  0  0
  6 28  1  0  0  0  0
  7  9  1  0  0  0  0
  7 29  1  0  0  0  0
  7 30  1  0  0  0  0
  8 31  1  0  0  0  0
  8 32  1  0  0  0  0
  9 33  1  0  0  0  0
  9 34  1  0  0  0  0
 10 35  1  0  0  0  0
 10 36  1  0  0  0  0
 10 37  1  0  0  0  0
 11 14  1  0  0  0  0
 12 13  1  0  0  0  0
 12 38  1  0  0  0  0
 12 39  1  0  0  0  0
 13 16  2  0  0  0  0
 13 17  1  0  0  0  0
 14 15  2  0  0  0  0
 14 40  1  0  0  0  0
 15 18  1  0  0  0  0
 16 19  1  0  0  0  0
 16 41  1  0  0  0  0
 17 20  2  0  0  0  0
 17 42  1  0  0  0  0
 18 22  2  0  0  0  0
 18 23  1  0  0  0  0
 19 21  2  0  0  0  0
 19 43  1  0  0  0  0
 20 21  1  0  0  0  0
 20 44  1  0  0  0  0
 21 45  1  0  0  0  0
 22 24  1  0  0  0  0
 22 47  1  0  0  0  0
 23 25  2  0  0  0  0
 23 48  1  0  0  0  0
 24 26  2  0  0  0  0
 24 49  1  0  0  0  0
 25 26  1  0  0  0  0
 25 50  1  0  0  0  0
M  END
> <PUBCHEM_COMPOUND_CID>
10714184

> <PUBCHEM_COMPOUND_CANONICALIZED>
1

> <PUBCHEM_CACTVS_COMPLEXITY>
496

> <PUBCHEM_CACTVS_HBOND_ACCEPTOR>
3

> <PUBCHEM_CACTVS_HBOND_DONOR>
1

> <PUBCHEM_CACTVS_ROTATABLE_BOND>
5

> <PUBCHEM_CACTVS_SUBSKEYS>
AAADceB6MAAEAAAAAAAAAAAAAAAAAAAAAAA8YIAAAAAAAAABQAAAHgIACAAADgbBmCQyAIMAAgCIAqBSAACCAAAgJQAIiAEIDsgIJjKBkxGEcAhkwAGImQeUwCAPBAAAAAAAAAAIAAAAAAAAAAAAAAAAAA==

> <PUBCHEM_IUPAC_OPENEYE_NAME>
(Z)-1-(1-benzyl-4-methyl-4-piperidyl)-3-(4-chlorophenyl)-3-hydroxy-prop-2-en-1-one

> <PUBCHEM_IUPAC_CAS_NAME>
(Z)-3-(4-chlorophenyl)-3-hydroxy-1-[4-methyl-1-(phenylmethyl)-4-piperidinyl]-2-propen-1-one

> <PUBCHEM_IUPAC_NAME_MARKUP>
(<I>Z</I>)-1-(1-benzyl-4-methylpiperidin-4-yl)-3-(4-chlorophenyl)-3-hydroxyprop-2-en-1-one

> <PUBCHEM_IUPAC_NAME>
(Z)-1-(1-benzyl-4-methylpiperidin-4-yl)-3-(4-chlorophenyl)-3-hydroxyprop-2-en-1-one

> <PUBCHEM_IUPAC_SYSTEMATIC_NAME>
(Z)-3-(4-chlorophenyl)-1-[4-methyl-1-(phenylmethyl)piperidin-4-yl]-3-oxidanyl-prop-2-en-1-one

> <PUBCHEM_IUPAC_TRADITIONAL_NAME>
(Z)-1-(1-benzyl-4-methyl-4-piperidyl)-3-(4-chlorophenyl)-3-hydroxy-prop-2-en-1-one

> <PUBCHEM_IUPAC_INCHI>
InChI=1S/C22H24ClNO2/c1-22(21(26)15-20(25)18-7-9-19(23)10-8-18)11-13-24(14-12-22)16-17-5-3-2-4-6-17/h2-10,15,25H,11-14,16H2,1H3/b20-15-

> <PUBCHEM_IUPAC_INCHIKEY>
FSHKWBYMYDCHAB-HKWRFOASSA-N

> <PUBCHEM_XLOGP3_AA>
5

> <PUBCHEM_EXACT_MASS>
369.1495567

> <PUBCHEM_MOLECULAR_FORMULA>
C22H24ClNO2

> <PUBCHEM_MOLECULAR_WEIGHT>
369.9

> <PUBCHEM_OPENEYE_CAN_SMILES>
CC1(CCN(CC1)CC2=CC=CC=C2)C(=O)C=C(C3=CC=C(C=C3)Cl)O

> <PUBCHEM_OPENEYE_ISO_SMILES>
CC1(CCN(CC1)CC2=CC=CC=C2)C(=O)/C=C(/C3=CC=C(C=C3)Cl)\O

> <PUBCHEM_CACTVS_TPSA>
40.5

> <PUBCHEM_MONOISOTOPIC_WEIGHT>
369.1495567

> <PUBCHEM_TOTAL_CHARGE>
0

> <PUBCHEM_HEAVY_ATOM_COUNT>
26

> <PUBCHEM_ATOM_DEF_STEREO_COUNT>
0

> <PUBCHEM_ATOM_UDEF_STEREO_COUNT>
0

> <PUBCHEM_BOND_DEF_STEREO_COUNT>
1

> <PUBCHEM_BOND_UDEF_STEREO_COUNT>
0

> <PUBCHEM_ISOTOPIC_ATOM_COUNT>
0

> <PUBCHEM_COMPONENT_COUNT>
1

> <PUBCHEM_CACTVS_TAUTO_COUNT>
-1

> <PUBCHEM_COORDINATE_TYPE>
1
5
255

> <PUBCHEM_BONDANNOTATIONS>
13  16  8
13  17  8
16  19  8
17  20  8
18  22  8
18  23  8
19  21  8
20  21  8
22  24  8
23  25  8
24  26  8
25  26  8

$$$$
