25139329
  -OEChem-09292322232D

 77 81  0     1  0  0  0  0  0999 V2000
    4.5768    2.2423    0.0000 N   0  0  3  0  0  0  0  0  0  0  0  0
    5.5267   -2.0118    0.0000 N   0  0  0  0  0  0  0  0  0  0  0  0
    6.5267   -2.0118    0.0000 N   0  0  0  0  0  0  0  0  0  0  0  0
    6.8357   -2.9629    0.0000 N   0  0  0  0  0  0  0  0  0  0  0  0
    4.9836    3.1559    0.0000 C   0  0  3  0  0  0  0  0  0  0  0  0
    5.9781    3.2604    0.0000 C   0  0  0  0  0  0  0  0  0  0  0  0
    4.3958    3.9649    0.0000 C   0  0  0  0  0  0  0  0  0  0  0  0
    5.1646    1.4333    0.0000 C   0  0  0  0  0  0  0  0  0  0  0  0
    6.3848    4.1739    0.0000 C   0  0  0  0  0  0  0  0  0  0  0  0
    3.5823    2.1378    0.0000 C   0  0  0  0  0  0  0  0  0  0  0  0
    4.7579    0.5197    0.0000 C   0  0  0  0  0  0  0  0  0  0  0  0
    4.8025    4.8784    0.0000 C   0  0  0  0  0  0  0  0  0  0  0  0
    5.7970    4.9830    0.0000 C   0  0  0  0  0  0  0  0  0  0  0  0
    2.9945    2.9468    0.0000 C   0  0  0  0  0  0  0  0  0  0  0  0
    5.3457   -0.2893    0.0000 C   0  0  0  0  0  0  0  0  0  0  0  0
    4.9389   -1.2028    0.0000 C   0  0  0  0  0  0  0  0  0  0  0  0
    2.0000    2.8423    0.0000 C   0  0  0  0  0  0  0  0  0  0  0  0
    6.2038    5.8965    0.0000 C   0  0  0  0  0  0  0  0  0  0  0  0
    5.2177   -2.9629    0.0000 C   0  0  0  0  0  0  0  0  0  0  0  0
    6.6105    6.8100    0.0000 C   0  0  0  0  0  0  0  0  0  0  0  0
    6.0267   -3.5507    0.0000 C   0  0  0  0  0  0  0  0  0  0  0  0
    7.0172    7.7236    0.0000 C   0  0  0  0  0  0  0  0  0  0  0  0
    6.0267   -4.5507    0.0000 C   0  0  0  0  0  0  0  0  0  0  0  0
    6.8927   -5.0507    0.0000 C   0  0  0  0  0  0  0  0  0  0  0  0
    5.1607   -5.0507    0.0000 C   0  0  0  0  0  0  0  0  0  0  0  0
    8.0118    7.8281    0.0000 C   0  0  0  0  0  0  0  0  0  0  0  0
    6.4295    8.5326    0.0000 C   0  0  0  0  0  0  0  0  0  0  0  0
    6.0267   -6.5507    0.0000 C   0  0  0  0  0  0  0  0  0  0  0  0
    6.8927   -6.0507    0.0000 C   0  0  0  0  0  0  0  0  0  0  0  0
    5.1607   -6.0507    0.0000 C   0  0  0  0  0  0  0  0  0  0  0  0
    8.4185    8.7417    0.0000 C   0  0  0  0  0  0  0  0  0  0  0  0
    6.8362    9.4462    0.0000 C   0  0  0  0  0  0  0  0  0  0  0  0
    6.0267   -7.5507    0.0000 C   0  0  0  0  0  0  0  0  0  0  0  0
    7.8307    9.5507    0.0000 C   0  0  0  0  0  0  0  0  0  0  0  0
    5.1607   -8.0507    0.0000 C   0  0  0  0  0  0  0  0  0  0  0  0
    6.8927   -8.0507    0.0000 C   0  0  0  0  0  0  0  0  0  0  0  0
    5.1607   -9.0507    0.0000 C   0  0  0  0  0  0  0  0  0  0  0  0
    6.8927   -9.0507    0.0000 C   0  0  0  0  0  0  0  0  0  0  0  0
    6.0267   -9.5507    0.0000 C   0  0  0  0  0  0  0  0  0  0  0  0
    5.3480    2.6543    0.0000 H   0  0  0  0  0  0  0  0  0  0  0  0
    5.9348    2.6419    0.0000 H   0  0  0  0  0  0  0  0  0  0  0  0
    6.5797    3.1104    0.0000 H   0  0  0  0  0  0  0  0  0  0  0  0
    3.8818    4.3116    0.0000 H   0  0  0  0  0  0  0  0  0  0  0  0
    3.9651    3.5189    0.0000 H   0  0  0  0  0  0  0  0  0  0  0  0
    5.6786    1.0866    0.0000 H   0  0  0  0  0  0  0  0  0  0  0  0
    5.5953    1.8793    0.0000 H   0  0  0  0  0  0  0  0  0  0  0  0
    6.8988    3.8272    0.0000 H   0  0  0  0  0  0  0  0  0  0  0  0
    6.8155    4.6199    0.0000 H   0  0  0  0  0  0  0  0  0  0  0  0
    3.0250    1.8660    0.0000 H   0  0  0  0  0  0  0  0  0  0  0  0
    3.7532    1.5418    0.0000 H   0  0  0  0  0  0  0  0  0  0  0  0
    4.2439    0.8664    0.0000 H   0  0  0  0  0  0  0  0  0  0  0  0
    4.3272    0.0738    0.0000 H   0  0  0  0  0  0  0  0  0  0  0  0
    4.4381    5.3800    0.0000 H   0  0  0  0  0  0  0  0  0  0  0  0
    3.5518    3.2186    0.0000 H   0  0  0  0  0  0  0  0  0  0  0  0
    2.8236    3.5428    0.0000 H   0  0  0  0  0  0  0  0  0  0  0  0
    5.8597   -0.6360    0.0000 H   0  0  0  0  0  0  0  0  0  0  0  0
    5.7764    0.1567    0.0000 H   0  0  0  0  0  0  0  0  0  0  0  0
    4.4249   -0.8561    0.0000 H   0  0  0  0  0  0  0  0  0  0  0  0
    4.5082   -1.6488    0.0000 H   0  0  0  0  0  0  0  0  0  0  0  0
    1.9352    3.4589    0.0000 H   0  0  0  0  0  0  0  0  0  0  0  0
    1.3834    2.7775    0.0000 H   0  0  0  0  0  0  0  0  0  0  0  0
    2.0648    2.2257    0.0000 H   0  0  0  0  0  0  0  0  0  0  0  0
    4.6280   -3.1545    0.0000 H   0  0  0  0  0  0  0  0  0  0  0  0
    7.4297   -4.7407    0.0000 H   0  0  0  0  0  0  0  0  0  0  0  0
    4.6238   -4.7407    0.0000 H   0  0  0  0  0  0  0  0  0  0  0  0
    8.3762    7.3265    0.0000 H   0  0  0  0  0  0  0  0  0  0  0  0
    5.8129    8.4678    0.0000 H   0  0  0  0  0  0  0  0  0  0  0  0
    7.4297   -6.3607    0.0000 H   0  0  0  0  0  0  0  0  0  0  0  0
    4.6238   -6.3607    0.0000 H   0  0  0  0  0  0  0  0  0  0  0  0
    9.0351    8.8065    0.0000 H   0  0  0  0  0  0  0  0  0  0  0  0
    6.4718    9.9477    0.0000 H   0  0  0  0  0  0  0  0  0  0  0  0
    8.0829   10.1171    0.0000 H   0  0  0  0  0  0  0  0  0  0  0  0
    4.6238   -7.7407    0.0000 H   0  0  0  0  0  0  0  0  0  0  0  0
    7.4297   -7.7407    0.0000 H   0  0  0  0  0  0  0  0  0  0  0  0
    4.6238   -9.3607    0.0000 H   0  0  0  0  0  0  0  0  0  0  0  0
    7.4297   -9.3607    0.0000 H   0  0  0  0  0  0  0  0  0  0  0  0
    6.0267  -10.1707    0.0000 H   0  0  0  0  0  0  0  0  0  0  0  0
  1  5  1  0  0  0  0
  1  8  1  0  0  0  0
  1 10  1  0  0  0  0
  2  3  1  0  0  0  0
  2 16  1  0  0  0  0
  2 19  1  0  0  0  0
  3  4  2  0  0  0  0
  4 21  1  0  0  0  0
  5  6  1  0  0  0  0
  5  7  1  0  0  0  0
  5 40  1  0  0  0  0
  6  9  1  0  0  0  0
  6 41  1  0  0  0  0
  6 42  1  0  0  0  0
  7 12  1  0  0  0  0
  7 43  1  0  0  0  0
  7 44  1  0  0  0  0
  8 11  1  0  0  0  0
  8 45  1  0  0  0  0
  8 46  1  0  0  0  0
  9 13  1  0  0  0  0
  9 47  1  0  0  0  0
  9 48  1  0  0  0  0
 10 14  1  0  0  0  0
 10 49  1  0  0  0  0
 10 50  1  0  0  0  0
 11 15  1  0  0  0  0
 11 51  1  0  0  0  0
 11 52  1  0  0  0  0
 12 13  2  0  0  0  0
 12 53  1  0  0  0  0
 13 18  1  0  0  0  0
 14 17  1  0  0  0  0
 14 54  1  0  0  0  0
 14 55  1  0  0  0  0
 15 16  1  0  0  0  0
 15 56  1  0  0  0  0
 15 57  1  0  0  0  0
 16 58  1  0  0  0  0
 16 59  1  0  0  0  0
 17 60  1  0  0  0  0
 17 61  1  0  0  0  0
 17 62  1  0  0  0  0
 18 20  3  0  0  0  0
 19 21  2  0  0  0  0
 19 63  1  0  0  0  0
 20 22  1  0  0  0  0
 21 23  1  0  0  0  0
 22 26  2  0  0  0  0
 22 27  1  0  0  0  0
 23 24  2  0  0  0  0
 23 25  1  0  0  0  0
 24 29  1  0  0  0  0
 24 64  1  0  0  0  0
 25 30  2  0  0  0  0
 25 65  1  0  0  0  0
 26 31  1  0  0  0  0
 26 66  1  0  0  0  0
 27 32  2  0  0  0  0
 27 67  1  0  0  0  0
 28 29  2  0  0  0  0
 28 30  1  0  0  0  0
 28 33  1  0  0  0  0
 29 68  1  0  0  0  0
 30 69  1  0  0  0  0
 31 34  2  0  0  0  0
 31 70  1  0  0  0  0
 32 34  1  0  0  0  0
 32 71  1  0  0  0  0
 33 35  2  0  0  0  0
 33 36  1  0  0  0  0
 34 72  1  0  0  0  0
 35 37  1  0  0  0  0
 35 73  1  0  0  0  0
 36 38  2  0  0  0  0
 36 74  1  0  0  0  0
 37 39  2  0  0  0  0
 37 75  1  0  0  0  0
 38 39  1  0  0  0  0
 38 76  1  0  0  0  0
 39 77  1  0  0  0  0
M  END
> <PUBCHEM_COMPOUND_CID>
25139329

> <PUBCHEM_COMPOUND_CANONICALIZED>
1

> <PUBCHEM_CACTVS_COMPLEXITY>
803

> <PUBCHEM_CACTVS_HBOND_ACCEPTOR>
3

> <PUBCHEM_CACTVS_HBOND_DONOR>
0

> <PUBCHEM_CACTVS_ROTATABLE_BOND>
12

> <PUBCHEM_CACTVS_SUBSKEYS>
AAADcfB/gAAAAAAAAAAAAAAAAAAAAWAAAAAwYMEAAAAAAAAB1AAAHAAIAAAADCjBHgQ+gJMIAADiEzRnRAiCBAQxkgAY2CA4dJgIYKLAkRGUIABggADIyAcQgMAOwAAAAAAAAACAAAAAAAAAAAAAAAAAAA==

> <PUBCHEM_IUPAC_OPENEYE_NAME>
4-(2-phenylethynyl)-N-[4-[4-(4-phenylphenyl)triazol-1-yl]butyl]-N-propyl-cyclohex-3-en-1-amine

> <PUBCHEM_IUPAC_CAS_NAME>
4-(2-phenylethynyl)-N-[4-[4-(4-phenylphenyl)-1-triazolyl]butyl]-N-propyl-1-cyclohex-3-enamine

> <PUBCHEM_IUPAC_NAME_MARKUP>
4-(2-phenylethynyl)-<I>N</I>-[4-[4-(4-phenylphenyl)triazol-1-yl]butyl]-<I>N</I>-propylcyclohex-3-en-1-amine

> <PUBCHEM_IUPAC_NAME>
4-(2-phenylethynyl)-N-[4-[4-(4-phenylphenyl)triazol-1-yl]butyl]-N-propylcyclohex-3-en-1-amine

> <PUBCHEM_IUPAC_SYSTEMATIC_NAME>
4-(2-phenylethynyl)-N-[4-[4-(4-phenylphenyl)-1,2,3-triazol-1-yl]butyl]-N-propyl-cyclohex-3-en-1-amine

> <PUBCHEM_IUPAC_TRADITIONAL_NAME>
[4-(2-phenylethynyl)cyclohex-3-en-1-yl]-[4-[4-(4-phenylphenyl)triazol-1-yl]butyl]-propyl-amine

> <PUBCHEM_IUPAC_INCHI>
InChI=1S/C35H38N4/c1-2-25-38(34-23-17-30(18-24-34)16-15-29-11-5-3-6-12-29)26-9-10-27-39-28-35(36-37-39)33-21-19-32(20-22-33)31-13-7-4-8-14-31/h3-8,11-14,17,19-22,28,34H,2,9-10,18,23-27H2,1H3

> <PUBCHEM_IUPAC_INCHIKEY>
VZFYQAAXSLVYIL-UHFFFAOYSA-N

> <PUBCHEM_XLOGP3_AA>
7.7

> <PUBCHEM_EXACT_MASS>
514.30964723

> <PUBCHEM_MOLECULAR_FORMULA>
C35H38N4

> <PUBCHEM_MOLECULAR_WEIGHT>
514.7

> <PUBCHEM_OPENEYE_CAN_SMILES>
CCCN(CCCCN1C=C(N=N1)C2=CC=C(C=C2)C3=CC=CC=C3)C4CCC(=CC4)C#CC5=CC=CC=C5

> <PUBCHEM_OPENEYE_ISO_SMILES>
CCCN(CCCCN1C=C(N=N1)C2=CC=C(C=C2)C3=CC=CC=C3)C4CCC(=CC4)C#CC5=CC=CC=C5

> <PUBCHEM_CACTVS_TPSA>
34

> <PUBCHEM_MONOISOTOPIC_WEIGHT>
514.30964723

> <PUBCHEM_TOTAL_CHARGE>
0

> <PUBCHEM_HEAVY_ATOM_COUNT>
39

> <PUBCHEM_ATOM_DEF_STEREO_COUNT>
0

> <PUBCHEM_ATOM_UDEF_STEREO_COUNT>
1

> <PUBCHEM_BOND_DEF_STEREO_COUNT>
0

> <PUBCHEM_BOND_UDEF_STEREO_COUNT>
0

> <PUBCHEM_ISOTOPIC_ATOM_COUNT>
0

> <PUBCHEM_COMPONENT_COUNT>
1

> <PUBCHEM_CACTVS_TAUTO_COUNT>
-1

> <PUBCHEM_COORDINATE_TYPE>
1
5
255

> <PUBCHEM_BONDANNOTATIONS>
5  1  3
19  21  8
2  19  8
2  3  8
22  26  8
22  27  8
23  24  8
23  25  8
24  29  8
25  30  8
26  31  8
27  32  8
28  29  8
28  30  8
3  4  8
31  34  8
32  34  8
33  35  8
33  36  8
35  37  8
36  38  8
37  39  8
38  39  8
4  21  8

$$$$
