155566058
  -OEChem-09292322402D

 74 77  0     1  0  0  0  0  0999 V2000
    7.1962    7.5000    0.0000 F   0  0  0  0  0  0  0  0  0  0  0  0
   10.6603   -5.5000    0.0000 O   0  0  0  0  0  0  0  0  0  0  0  0
    8.0622    2.0000    0.0000 O   0  0  0  0  0  0  0  0  0  0  0  0
    2.8660    5.0000    0.0000 O   0  0  0  0  0  0  0  0  0  0  0  0
    8.9282   -2.5000    0.0000 N   0  0  0  0  0  0  0  0  0  0  0  0
    8.9282   -4.5000    0.0000 N   0  0  0  0  0  0  0  0  0  0  0  0
    7.1962    0.5000    0.0000 N   0  0  0  0  0  0  0  0  0  0  0  0
    6.3301    2.0000    0.0000 N   0  0  0  0  0  0  0  0  0  0  0  0
    6.3301    3.0000    0.0000 N   0  0  3  0  0  0  0  0  0  0  0  0
    9.7942   -3.0000    0.0000 C   0  0  0  0  0  0  0  0  0  0  0  0
    8.0622   -3.0000    0.0000 C   0  0  0  0  0  0  0  0  0  0  0  0
    9.7942   -4.0000    0.0000 C   0  0  0  0  0  0  0  0  0  0  0  0
    8.0622   -4.0000    0.0000 C   0  0  0  0  0  0  0  0  0  0  0  0
    8.9282   -1.5000    0.0000 C   0  0  0  0  0  0  0  0  0  0  0  0
    8.0622   -1.0000    0.0000 C   0  0  0  0  0  0  0  0  0  0  0  0
    8.9282   -5.5000    0.0000 C   0  0  0  0  0  0  0  0  0  0  0  0
    8.0622    0.0000    0.0000 C   0  0  0  0  0  0  0  0  0  0  0  0
    9.7942   -6.0000    0.0000 C   0  0  0  0  0  0  0  0  0  0  0  0
    8.0622   -6.0000    0.0000 C   0  0  0  0  0  0  0  0  0  0  0  0
    9.7942   -7.0000    0.0000 C   0  0  0  0  0  0  0  0  0  0  0  0
    8.0622   -7.0000    0.0000 C   0  0  0  0  0  0  0  0  0  0  0  0
    8.9282   -7.5000    0.0000 C   0  0  0  0  0  0  0  0  0  0  0  0
    7.1962    1.5000    0.0000 C   0  0  0  0  0  0  0  0  0  0  0  0
   11.5263   -6.0000    0.0000 C   0  0  0  0  0  0  0  0  0  0  0  0
    7.1962    3.5000    0.0000 C   0  0  0  0  0  0  0  0  0  0  0  0
    5.4641    3.5000    0.0000 C   0  0  0  0  0  0  0  0  0  0  0  0
    7.1962    4.5000    0.0000 C   0  0  0  0  0  0  0  0  0  0  0  0
    5.4641    4.5000    0.0000 C   0  0  0  0  0  0  0  0  0  0  0  0
    4.5981    3.0000    0.0000 C   0  0  0  0  0  0  0  0  0  0  0  0
    6.3301    5.0000    0.0000 C   0  0  0  0  0  0  0  0  0  0  0  0
    8.0622    5.0000    0.0000 C   0  0  0  0  0  0  0  0  0  0  0  0
    4.5981    5.0000    0.0000 C   0  0  0  0  0  0  0  0  0  0  0  0
    3.7320    3.5000    0.0000 C   0  0  0  0  0  0  0  0  0  0  0  0
    3.7320    4.5000    0.0000 C   0  0  0  0  0  0  0  0  0  0  0  0
    6.3301    6.0000    0.0000 C   0  0  0  0  0  0  0  0  0  0  0  0
    8.0622    6.0000    0.0000 C   0  0  0  0  0  0  0  0  0  0  0  0
    7.1962    6.5000    0.0000 C   0  0  0  0  0  0  0  0  0  0  0  0
    2.0000    4.5000    0.0000 C   0  0  0  0  0  0  0  0  0  0  0  0
   10.4048   -3.1077    0.0000 H   0  0  0  0  0  0  0  0  0  0  0  0
   10.0063   -2.4174    0.0000 H   0  0  0  0  0  0  0  0  0  0  0  0
    7.8501   -2.4174    0.0000 H   0  0  0  0  0  0  0  0  0  0  0  0
    7.4516   -3.1077    0.0000 H   0  0  0  0  0  0  0  0  0  0  0  0
   10.0063   -4.5826    0.0000 H   0  0  0  0  0  0  0  0  0  0  0  0
   10.4048   -3.8923    0.0000 H   0  0  0  0  0  0  0  0  0  0  0  0
    7.4516   -3.8923    0.0000 H   0  0  0  0  0  0  0  0  0  0  0  0
    7.8501   -4.5826    0.0000 H   0  0  0  0  0  0  0  0  0  0  0  0
    9.5388   -1.6077    0.0000 H   0  0  0  0  0  0  0  0  0  0  0  0
    9.1403   -0.9174    0.0000 H   0  0  0  0  0  0  0  0  0  0  0  0
    7.4516   -0.8923    0.0000 H   0  0  0  0  0  0  0  0  0  0  0  0
    7.8501   -1.5826    0.0000 H   0  0  0  0  0  0  0  0  0  0  0  0
    8.6728   -0.1077    0.0000 H   0  0  0  0  0  0  0  0  0  0  0  0
    8.2742    0.5826    0.0000 H   0  0  0  0  0  0  0  0  0  0  0  0
    7.5252   -5.6900    0.0000 H   0  0  0  0  0  0  0  0  0  0  0  0
    6.6592    0.1900    0.0000 H   0  0  0  0  0  0  0  0  0  0  0  0
   10.3312   -7.3100    0.0000 H   0  0  0  0  0  0  0  0  0  0  0  0
    7.5252   -7.3100    0.0000 H   0  0  0  0  0  0  0  0  0  0  0  0
    8.9282   -8.1200    0.0000 H   0  0  0  0  0  0  0  0  0  0  0  0
    5.7932    1.6900    0.0000 H   0  0  0  0  0  0  0  0  0  0  0  0
   11.2163   -6.5369    0.0000 H   0  0  0  0  0  0  0  0  0  0  0  0
   12.0632   -6.3100    0.0000 H   0  0  0  0  0  0  0  0  0  0  0  0
   11.8363   -5.4631    0.0000 H   0  0  0  0  0  0  0  0  0  0  0  0
    7.4082    2.9174    0.0000 H   0  0  0  0  0  0  0  0  0  0  0  0
    7.8067    3.6077    0.0000 H   0  0  0  0  0  0  0  0  0  0  0  0
    6.0010    4.8100    0.0000 H   0  0  0  0  0  0  0  0  0  0  0  0
    4.5981    2.3800    0.0000 H   0  0  0  0  0  0  0  0  0  0  0  0
    5.7932    4.6900    0.0000 H   0  0  0  0  0  0  0  0  0  0  0  0
    8.5991    4.6900    0.0000 H   0  0  0  0  0  0  0  0  0  0  0  0
    4.5981    5.6200    0.0000 H   0  0  0  0  0  0  0  0  0  0  0  0
    3.1951    3.1900    0.0000 H   0  0  0  0  0  0  0  0  0  0  0  0
    5.7932    6.3100    0.0000 H   0  0  0  0  0  0  0  0  0  0  0  0
    8.5991    6.3100    0.0000 H   0  0  0  0  0  0  0  0  0  0  0  0
    1.6900    5.0369    0.0000 H   0  0  0  0  0  0  0  0  0  0  0  0
    1.4631    4.1900    0.0000 H   0  0  0  0  0  0  0  0  0  0  0  0
    2.3100    3.9631    0.0000 H   0  0  0  0  0  0  0  0  0  0  0  0
  1 37  1  0  0  0  0
  2 18  1  0  0  0  0
  2 24  1  0  0  0  0
  3 23  2  0  0  0  0
  4 34  1  0  0  0  0
  4 38  1  0  0  0  0
  5 10  1  0  0  0  0
  5 11  1  0  0  0  0
  5 14  1  0  0  0  0
  6 12  1  0  0  0  0
  6 13  1  0  0  0  0
  6 16  1  0  0  0  0
  7 17  1  0  0  0  0
  7 23  1  0  0  0  0
  7 54  1  0  0  0  0
  8  9  1  0  0  0  0
  8 23  1  0  0  0  0
  8 58  1  0  0  0  0
  9 25  1  0  0  0  0
  9 26  1  0  0  0  0
 10 12  1  0  0  0  0
 10 39  1  0  0  0  0
 10 40  1  0  0  0  0
 11 13  1  0  0  0  0
 11 41  1  0  0  0  0
 11 42  1  0  0  0  0
 12 43  1  0  0  0  0
 12 44  1  0  0  0  0
 13 45  1  0  0  0  0
 13 46  1  0  0  0  0
 14 15  1  0  0  0  0
 14 47  1  0  0  0  0
 14 48  1  0  0  0  0
 15 17  1  0  0  0  0
 15 49  1  0  0  0  0
 15 50  1  0  0  0  0
 16 18  1  0  0  0  0
 16 19  2  0  0  0  0
 17 51  1  0  0  0  0
 17 52  1  0  0  0  0
 18 20  2  0  0  0  0
 19 21  1  0  0  0  0
 19 53  1  0  0  0  0
 20 22  1  0  0  0  0
 20 55  1  0  0  0  0
 21 22  2  0  0  0  0
 21 56  1  0  0  0  0
 22 57  1  0  0  0  0
 24 59  1  0  0  0  0
 24 60  1  0  0  0  0
 24 61  1  0  0  0  0
 25 27  1  0  0  0  0
 25 62  1  0  0  0  0
 25 63  1  0  0  0  0
 26 28  2  0  0  0  0
 26 29  1  0  0  0  0
 27 30  2  0  0  0  0
 27 31  1  0  0  0  0
 28 32  1  0  0  0  0
 28 64  1  0  0  0  0
 29 33  2  0  0  0  0
 29 65  1  0  0  0  0
 30 35  1  0  0  0  0
 30 66  1  0  0  0  0
 31 36  2  0  0  0  0
 31 67  1  0  0  0  0
 32 34  2  0  0  0  0
 32 68  1  0  0  0  0
 33 34  1  0  0  0  0
 33 69  1  0  0  0  0
 35 37  2  0  0  0  0
 35 70  1  0  0  0  0
 36 37  1  0  0  0  0
 36 71  1  0  0  0  0
 38 72  1  0  0  0  0
 38 73  1  0  0  0  0
 38 74  1  0  0  0  0
M  END
> <PUBCHEM_COMPOUND_CID>
155566058

> <PUBCHEM_COMPOUND_CANONICALIZED>
1

> <PUBCHEM_CACTVS_COMPLEXITY>
679

> <PUBCHEM_CACTVS_HBOND_ACCEPTOR>
7

> <PUBCHEM_CACTVS_HBOND_DONOR>
2

> <PUBCHEM_CACTVS_ROTATABLE_BOND>
11

> <PUBCHEM_CACTVS_SUBSKEYS>
AAADcfB7sQAAAAAAAAAAAAAAAAAAAAAAAAA8YMEAAAAAAAABUAAAHwAYAAAADAzBmA4zxoPiBACIAiRCUACCDAAhIgAeqIAPbIiOZiLE8ZuVMCh01hPY6AewwAAOAEAAAAAAEAAAgAAAAAAgAAAAAAAAAA==

> <PUBCHEM_IUPAC_OPENEYE_NAME>
1-[N-[(4-fluorophenyl)methyl]-4-methoxy-anilino]-3-[3-[4-(2-methoxyphenyl)piperazin-1-yl]propyl]urea

> <PUBCHEM_IUPAC_CAS_NAME>
1-[N-[(4-fluorophenyl)methyl]-4-methoxyanilino]-3-[3-[4-(2-methoxyphenyl)-1-piperazinyl]propyl]urea

> <PUBCHEM_IUPAC_NAME_MARKUP>
1-[<I>N</I>-[(4-fluorophenyl)methyl]-4-methoxyanilino]-3-[3-[4-(2-methoxyphenyl)piperazin-1-yl]propyl]urea

> <PUBCHEM_IUPAC_NAME>
1-[N-[(4-fluorophenyl)methyl]-4-methoxyanilino]-3-[3-[4-(2-methoxyphenyl)piperazin-1-yl]propyl]urea

> <PUBCHEM_IUPAC_SYSTEMATIC_NAME>
1-[(4-fluorophenyl)methyl-(4-methoxyphenyl)amino]-3-[3-[4-(2-methoxyphenyl)piperazin-1-yl]propyl]urea

> <PUBCHEM_IUPAC_TRADITIONAL_NAME>
1-(N-(4-fluorobenzyl)-4-methoxy-anilino)-3-[3-[4-(2-methoxyphenyl)piperazino]propyl]urea

> <PUBCHEM_IUPAC_INCHI>
InChI=1S/C29H36FN5O3/c1-37-26-14-12-25(13-15-26)35(22-23-8-10-24(30)11-9-23)32-29(36)31-16-5-17-33-18-20-34(21-19-33)27-6-3-4-7-28(27)38-2/h3-4,6-15H,5,16-22H2,1-2H3,(H2,31,32,36)

> <PUBCHEM_IUPAC_INCHIKEY>
SKNVJEZUCGHGRG-UHFFFAOYSA-N

> <PUBCHEM_XLOGP3_AA>
4.9

> <PUBCHEM_EXACT_MASS>
521.28021819

> <PUBCHEM_MOLECULAR_FORMULA>
C29H36FN5O3

> <PUBCHEM_MOLECULAR_WEIGHT>
521.6

> <PUBCHEM_OPENEYE_CAN_SMILES>
COC1=CC=C(C=C1)N(CC2=CC=C(C=C2)F)NC(=O)NCCCN3CCN(CC3)C4=CC=CC=C4OC

> <PUBCHEM_OPENEYE_ISO_SMILES>
COC1=CC=C(C=C1)N(CC2=CC=C(C=C2)F)NC(=O)NCCCN3CCN(CC3)C4=CC=CC=C4OC

> <PUBCHEM_CACTVS_TPSA>
69.3

> <PUBCHEM_MONOISOTOPIC_WEIGHT>
521.28021819

> <PUBCHEM_TOTAL_CHARGE>
0

> <PUBCHEM_HEAVY_ATOM_COUNT>
38

> <PUBCHEM_ATOM_DEF_STEREO_COUNT>
0

> <PUBCHEM_ATOM_UDEF_STEREO_COUNT>
0

> <PUBCHEM_BOND_DEF_STEREO_COUNT>
0

> <PUBCHEM_BOND_UDEF_STEREO_COUNT>
0

> <PUBCHEM_ISOTOPIC_ATOM_COUNT>
0

> <PUBCHEM_COMPONENT_COUNT>
1

> <PUBCHEM_CACTVS_TAUTO_COUNT>
-1

> <PUBCHEM_COORDINATE_TYPE>
1
5
255

> <PUBCHEM_BONDANNOTATIONS>
16  18  8
16  19  8
18  20  8
19  21  8
20  22  8
21  22  8
26  28  8
26  29  8
27  30  8
27  31  8
28  32  8
29  33  8
30  35  8
31  36  8
32  34  8
33  34  8
35  37  8
36  37  8

$$$$
