19380972
  -OEChem-09292321582D

 66 70  0     1  0  0  0  0  0999 V2000
    2.0000    1.0832    0.0000 Cl  0  0  0  0  0  0  0  0  0  0  0  0
    7.0417   -1.9402    0.0000 O   0  0  0  0  0  0  0  0  0  0  0  0
    8.4560   -3.3544    0.0000 O   0  0  0  0  0  0  0  0  0  0  0  0
    9.6807   -2.1297    0.0000 O   0  0  0  0  0  0  0  0  0  0  0  0
    6.1452    1.4059    0.0000 N   0  0  0  0  0  0  0  0  0  0  0  0
    8.2665   -0.7155    0.0000 N   0  0  0  0  0  0  0  0  0  0  0  0
    5.6969    3.0789    0.0000 C   0  0  3  0  0  0  0  0  0  0  0  0
    5.9557    4.0448    0.0000 C   0  0  3  0  0  0  0  0  0  0  0  0
    5.2191    5.0274    0.0000 C   0  0  0  0  0  0  0  0  0  0  0  0
    4.3242    2.4869    0.0000 C   0  0  0  0  0  0  0  0  0  0  0  0
    7.0958    2.5701    0.0000 C   0  0  0  0  0  0  0  0  0  0  0  0
    5.4380    2.1130    0.0000 C   0  0  0  0  0  0  0  0  0  0  0  0
    3.9822    3.4266    0.0000 C   0  0  0  0  0  0  0  0  0  0  0  0
    7.3546    3.5360    0.0000 C   0  0  0  0  0  0  0  0  0  0  0  0
    3.6670    1.6787    0.0000 C   0  0  0  0  0  0  0  0  0  0  0  0
    7.8209    1.8223    0.0000 C   0  0  0  0  0  0  0  0  0  0  0  0
    5.8863    0.4399    0.0000 C   0  0  0  0  0  0  0  0  0  0  0  0
    7.1111    1.6647    0.0000 C   0  0  0  0  0  0  0  0  0  0  0  0
    2.9592    3.6232    0.0000 C   0  0  0  0  0  0  0  0  0  0  0  0
    8.3565    3.8211    0.0000 C   0  0  0  0  0  0  0  0  0  0  0  0
    6.5934   -0.2672    0.0000 C   0  0  0  0  0  0  0  0  0  0  0  0
    7.8182    0.9576    0.0000 C   0  0  0  0  0  0  0  0  0  0  0  0
    7.5594   -0.0083    0.0000 C   0  0  0  0  0  0  0  0  0  0  0  0
    2.6398    1.8517    0.0000 C   0  0  0  0  0  0  0  0  0  0  0  0
    8.8291    2.0841    0.0000 C   0  0  0  0  0  0  0  0  0  0  0  0
    2.2836    2.8305    0.0000 C   0  0  0  0  0  0  0  0  0  0  0  0
    9.0987    3.0902    0.0000 C   0  0  0  0  0  0  0  0  0  0  0  0
    8.0077   -1.6814    0.0000 C   0  0  0  0  0  0  0  0  0  0  0  0
    8.7148   -2.3885    0.0000 C   0  0  0  0  0  0  0  0  0  0  0  0
    9.1630   -4.0615    0.0000 C   0  0  0  0  0  0  0  0  0  0  0  0
   10.3878   -2.8368    0.0000 C   0  0  0  0  0  0  0  0  0  0  0  0
    8.9042   -5.0274    0.0000 C   0  0  0  0  0  0  0  0  0  0  0  0
   11.3537   -2.5780    0.0000 C   0  0  0  0  0  0  0  0  0  0  0  0
    6.3250    4.5428    0.0000 H   0  0  0  0  0  0  0  0  0  0  0  0
    5.5369    5.5598    0.0000 H   0  0  0  0  0  0  0  0  0  0  0  0
    4.6059    5.1194    0.0000 H   0  0  0  0  0  0  0  0  0  0  0  0
    4.8761    2.3750    0.0000 H   0  0  0  0  0  0  0  0  0  0  0  0
    5.0824    1.6051    0.0000 H   0  0  0  0  0  0  0  0  0  0  0  0
    3.8858    1.0986    0.0000 H   0  0  0  0  0  0  0  0  0  0  0  0
    7.6535    1.2253    0.0000 H   0  0  0  0  0  0  0  0  0  0  0  0
    5.3244    0.7020    0.0000 H   0  0  0  0  0  0  0  0  0  0  0  0
    5.5307   -0.0679    0.0000 H   0  0  0  0  0  0  0  0  0  0  0  0
    7.6190    2.0203    0.0000 H   0  0  0  0  0  0  0  0  0  0  0  0
    6.8491    2.2266    0.0000 H   0  0  0  0  0  0  0  0  0  0  0  0
    2.7540    4.2083    0.0000 H   0  0  0  0  0  0  0  0  0  0  0  0
    8.5100    4.4218    0.0000 H   0  0  0  0  0  0  0  0  0  0  0  0
    6.0856   -0.6228    0.0000 H   0  0  0  0  0  0  0  0  0  0  0  0
    6.8555   -0.8291    0.0000 H   0  0  0  0  0  0  0  0  0  0  0  0
    8.3801    0.6956    0.0000 H   0  0  0  0  0  0  0  0  0  0  0  0
    8.1738    1.4655    0.0000 H   0  0  0  0  0  0  0  0  0  0  0  0
    7.3989   -0.6072    0.0000 H   0  0  0  0  0  0  0  0  0  0  0  0
    9.2658    1.6440    0.0000 H   0  0  0  0  0  0  0  0  0  0  0  0
    1.6734    2.9405    0.0000 H   0  0  0  0  0  0  0  0  0  0  0  0
    9.6969    3.2530    0.0000 H   0  0  0  0  0  0  0  0  0  0  0  0
    8.8654   -0.5550    0.0000 H   0  0  0  0  0  0  0  0  0  0  0  0
    8.1159   -2.5490    0.0000 H   0  0  0  0  0  0  0  0  0  0  0  0
    9.7250   -4.3235    0.0000 H   0  0  0  0  0  0  0  0  0  0  0  0
    9.5187   -3.5536    0.0000 H   0  0  0  0  0  0  0  0  0  0  0  0
    9.8799   -3.1924    0.0000 H   0  0  0  0  0  0  0  0  0  0  0  0
   10.6498   -3.3987    0.0000 H   0  0  0  0  0  0  0  0  0  0  0  0
    8.3054   -4.8670    0.0000 H   0  0  0  0  0  0  0  0  0  0  0  0
    8.7438   -5.6263    0.0000 H   0  0  0  0  0  0  0  0  0  0  0  0
    9.5031   -5.1879    0.0000 H   0  0  0  0  0  0  0  0  0  0  0  0
   11.5142   -3.1768    0.0000 H   0  0  0  0  0  0  0  0  0  0  0  0
   11.9526   -2.4175    0.0000 H   0  0  0  0  0  0  0  0  0  0  0  0
   11.1933   -1.9791    0.0000 H   0  0  0  0  0  0  0  0  0  0  0  0
  1 24  1  0  0  0  0
  2 28  2  0  0  0  0
  3 29  1  0  0  0  0
  3 30  1  0  0  0  0
  4 29  1  0  0  0  0
  4 31  1  0  0  0  0
  5 12  1  0  0  0  0
  5 17  1  0  0  0  0
  5 18  1  0  0  0  0
  6 23  1  0  0  0  0
  6 28  1  0  0  0  0
  6 55  1  0  0  0  0
  7  9  1  0  0  0  0
  7 10  1  0  0  0  0
  7 11  1  0  0  0  0
  7 12  1  0  0  0  0
  8  9  1  0  0  0  0
  8 13  1  0  0  0  0
  8 14  1  0  0  0  0
  8 34  1  0  0  0  0
  9 35  1  0  0  0  0
  9 36  1  0  0  0  0
 10 13  2  0  0  0  0
 10 15  1  0  0  0  0
 11 14  1  0  0  0  0
 11 16  2  0  0  0  0
 12 37  1  0  0  0  0
 12 38  1  0  0  0  0
 13 19  1  0  0  0  0
 14 20  2  0  0  0  0
 15 24  2  0  0  0  0
 15 39  1  0  0  0  0
 16 25  1  0  0  0  0
 16 40  1  0  0  0  0
 17 21  1  0  0  0  0
 17 41  1  0  0  0  0
 17 42  1  0  0  0  0
 18 22  1  0  0  0  0
 18 43  1  0  0  0  0
 18 44  1  0  0  0  0
 19 26  2  0  0  0  0
 19 45  1  0  0  0  0
 20 27  1  0  0  0  0
 20 46  1  0  0  0  0
 21 23  1  0  0  0  0
 21 47  1  0  0  0  0
 21 48  1  0  0  0  0
 22 23  1  0  0  0  0
 22 49  1  0  0  0  0
 22 50  1  0  0  0  0
 23 51  1  0  0  0  0
 24 26  1  0  0  0  0
 25 27  2  0  0  0  0
 25 52  1  0  0  0  0
 26 53  1  0  0  0  0
 27 54  1  0  0  0  0
 28 29  1  0  0  0  0
 29 56  1  0  0  0  0
 30 32  1  0  0  0  0
 30 57  1  0  0  0  0
 30 58  1  0  0  0  0
 31 33  1  0  0  0  0
 31 59  1  0  0  0  0
 31 60  1  0  0  0  0
 32 61  1  0  0  0  0
 32 62  1  0  0  0  0
 32 63  1  0  0  0  0
 33 64  1  0  0  0  0
 33 65  1  0  0  0  0
 33 66  1  0  0  0  0
M  END
> <PUBCHEM_COMPOUND_CID>
19380972

> <PUBCHEM_COMPOUND_CANONICALIZED>
1

> <PUBCHEM_CACTVS_COMPLEXITY>
678

> <PUBCHEM_CACTVS_HBOND_ACCEPTOR>
4

> <PUBCHEM_CACTVS_HBOND_DONOR>
1

> <PUBCHEM_CACTVS_ROTATABLE_BOND>
8

> <PUBCHEM_CACTVS_SUBSKEYS>
AAADcfB7MAAEAAAAAAAAAAAAAAAAAYMAAAA8YMEAAAAAAGABQAAAHgIQAAAADyrxmCcyCIPABACIAiFSEAICAAAgBQAIiIBIAogaICKB0xWnIAAglgCciAcQgMAPhAAAIAAQAACIAARAACAAAQAACAAAAA==

> <PUBCHEM_IUPAC_OPENEYE_NAME>
N-[1-[(4-chloro-1-tetracyclo[6.6.1.02,7.09,14]pentadeca-2(7),3,5,9,11,13-hexaenyl)methyl]-4-piperidyl]-2,2-diethoxy-acetamide

> <PUBCHEM_IUPAC_CAS_NAME>
N-[1-[(4-chloro-1-tetracyclo[6.6.1.02,7.09,14]pentadeca-2(7),3,5,9,11,13-hexaenyl)methyl]-4-piperidinyl]-2,2-diethoxyacetamide

> <PUBCHEM_IUPAC_NAME_MARKUP>
<I>N</I>-[1-[(4-chloro-1-tetracyclo[6.6.1.0<SUP>2,7</SUP>.0<SUP>9,14</SUP>]pentadeca-2(7),3,5,9,11,13-hexaenyl)methyl]piperidin-4-yl]-2,2-diethoxyacetamide

> <PUBCHEM_IUPAC_NAME>
N-[1-[(4-chloro-1-tetracyclo[6.6.1.02,7.09,14]pentadeca-2(7),3,5,9,11,13-hexaenyl)methyl]piperidin-4-yl]-2,2-diethoxyacetamide

> <PUBCHEM_IUPAC_SYSTEMATIC_NAME>
N-[1-[(4-chloranyl-1-tetracyclo[6.6.1.02,7.09,14]pentadeca-2(7),3,5,9,11,13-hexaenyl)methyl]piperidin-4-yl]-2,2-diethoxy-ethanamide

> <PUBCHEM_IUPAC_TRADITIONAL_NAME>
N-[1-[(4-chloro-1-tetracyclo[6.6.1.02,7.09,14]pentadeca-2(7),3,5,9,11,13-hexaenyl)methyl]-4-piperidyl]-2,2-diethoxy-acetamide

> <PUBCHEM_IUPAC_INCHI>
InChI=1S/C27H33ClN2O3/c1-3-32-26(33-4-2)25(31)29-19-11-13-30(14-12-19)17-27-16-22(20-7-5-6-8-23(20)27)21-10-9-18(28)15-24(21)27/h5-10,15,19,22,26H,3-4,11-14,16-17H2,1-2H3,(H,29,31)

> <PUBCHEM_IUPAC_INCHIKEY>
DOWHWGWRLJFPKD-UHFFFAOYSA-N

> <PUBCHEM_XLOGP3_AA>
4.7

> <PUBCHEM_EXACT_MASS>
468.2179706

> <PUBCHEM_MOLECULAR_FORMULA>
C27H33ClN2O3

> <PUBCHEM_MOLECULAR_WEIGHT>
469.0

> <PUBCHEM_OPENEYE_CAN_SMILES>
CCOC(C(=O)NC1CCN(CC1)CC23CC(C4=C2C=C(C=C4)Cl)C5=CC=CC=C35)OCC

> <PUBCHEM_OPENEYE_ISO_SMILES>
CCOC(C(=O)NC1CCN(CC1)CC23CC(C4=C2C=C(C=C4)Cl)C5=CC=CC=C35)OCC

> <PUBCHEM_CACTVS_TPSA>
50.8

> <PUBCHEM_MONOISOTOPIC_WEIGHT>
468.2179706

> <PUBCHEM_TOTAL_CHARGE>
0

> <PUBCHEM_HEAVY_ATOM_COUNT>
33

> <PUBCHEM_ATOM_DEF_STEREO_COUNT>
0

> <PUBCHEM_ATOM_UDEF_STEREO_COUNT>
2

> <PUBCHEM_BOND_DEF_STEREO_COUNT>
0

> <PUBCHEM_BOND_UDEF_STEREO_COUNT>
0

> <PUBCHEM_ISOTOPIC_ATOM_COUNT>
0

> <PUBCHEM_COMPONENT_COUNT>
1

> <PUBCHEM_CACTVS_TAUTO_COUNT>
-1

> <PUBCHEM_COORDINATE_TYPE>
1
5
255

> <PUBCHEM_BONDANNOTATIONS>
10  13  8
10  15  8
11  14  8
11  16  8
13  19  8
14  20  8
15  24  8
16  25  8
19  26  8
20  27  8
24  26  8
25  27  8
7  9  3
8  9  3

$$$$
