164618482
  -OEChem-09292322432D

 48 50  0     0  0  0  0  0  0999 V2000
    6.3301   -4.2500    0.0000 Cl  0  0  0  0  0  0  0  0  0  0  0  0
    8.0622   -5.2500    0.0000 Cl  0  0  0  0  0  0  0  0  0  0  0  0
    8.0622   -1.2500    0.0000 O   0  0  0  0  0  0  0  0  0  0  0  0
    4.5981    3.7500    0.0000 N   0  0  0  0  0  0  0  0  0  0  0  0
    2.8660    4.7500    0.0000 N   0  0  0  0  0  0  0  0  0  0  0  0
    5.4641    2.2500    0.0000 N   0  0  0  0  0  0  0  0  0  0  0  0
    6.3301    3.7500    0.0000 N   0  0  0  0  0  0  0  0  0  0  0  0
    7.1962    2.2500    0.0000 N   0  0  0  0  0  0  0  0  0  0  0  0
    8.0622    3.7500    0.0000 N   0  0  0  0  0  0  0  0  0  0  0  0
    4.5981    4.7500    0.0000 C   0  0  0  0  0  0  0  0  0  0  0  0
    3.7320    3.2500    0.0000 C   0  0  0  0  0  0  0  0  0  0  0  0
    3.7320    5.2500    0.0000 C   0  0  0  0  0  0  0  0  0  0  0  0
    2.8660    3.7500    0.0000 C   0  0  0  0  0  0  0  0  0  0  0  0
    5.4641    3.2500    0.0000 C   0  0  0  0  0  0  0  0  0  0  0  0
    2.0000    5.2500    0.0000 C   0  0  0  0  0  0  0  0  0  0  0  0
    6.3301    1.7500    0.0000 C   0  0  0  0  0  0  0  0  0  0  0  0
    6.3301    0.7500    0.0000 C   0  0  0  0  0  0  0  0  0  0  0  0
    7.1962    0.2500    0.0000 C   0  0  0  0  0  0  0  0  0  0  0  0
    7.1962    3.2500    0.0000 C   0  0  0  0  0  0  0  0  0  0  0  0
    7.1962   -0.7500    0.0000 C   0  0  0  0  0  0  0  0  0  0  0  0
    8.0622   -2.2500    0.0000 C   0  0  0  0  0  0  0  0  0  0  0  0
    7.1962   -2.7500    0.0000 C   0  0  0  0  0  0  0  0  0  0  0  0
    8.9282   -2.7500    0.0000 C   0  0  0  0  0  0  0  0  0  0  0  0
    7.1962   -3.7500    0.0000 C   0  0  0  0  0  0  0  0  0  0  0  0
    8.9282   -3.7500    0.0000 C   0  0  0  0  0  0  0  0  0  0  0  0
    8.0622   -4.2500    0.0000 C   0  0  0  0  0  0  0  0  0  0  0  0
    5.2087    4.6423    0.0000 H   0  0  0  0  0  0  0  0  0  0  0  0
    4.8101    5.3326    0.0000 H   0  0  0  0  0  0  0  0  0  0  0  0
    3.3335    2.7750    0.0000 H   0  0  0  0  0  0  0  0  0  0  0  0
    4.1306    2.7750    0.0000 H   0  0  0  0  0  0  0  0  0  0  0  0
    4.1306    5.7250    0.0000 H   0  0  0  0  0  0  0  0  0  0  0  0
    3.3335    5.7250    0.0000 H   0  0  0  0  0  0  0  0  0  0  0  0
    2.2554    3.8577    0.0000 H   0  0  0  0  0  0  0  0  0  0  0  0
    2.6540    3.1674    0.0000 H   0  0  0  0  0  0  0  0  0  0  0  0
    2.3100    5.7869    0.0000 H   0  0  0  0  0  0  0  0  0  0  0  0
    1.4631    5.5600    0.0000 H   0  0  0  0  0  0  0  0  0  0  0  0
    1.6900    4.7131    0.0000 H   0  0  0  0  0  0  0  0  0  0  0  0
    5.7196    0.8577    0.0000 H   0  0  0  0  0  0  0  0  0  0  0  0
    6.1181    0.1674    0.0000 H   0  0  0  0  0  0  0  0  0  0  0  0
    7.8067    0.1423    0.0000 H   0  0  0  0  0  0  0  0  0  0  0  0
    7.4082    0.8326    0.0000 H   0  0  0  0  0  0  0  0  0  0  0  0
    6.5856   -0.6423    0.0000 H   0  0  0  0  0  0  0  0  0  0  0  0
    6.9841   -1.3326    0.0000 H   0  0  0  0  0  0  0  0  0  0  0  0
    8.5991    3.4400    0.0000 H   0  0  0  0  0  0  0  0  0  0  0  0
    8.0622    4.3700    0.0000 H   0  0  0  0  0  0  0  0  0  0  0  0
    6.6592   -2.4400    0.0000 H   0  0  0  0  0  0  0  0  0  0  0  0
    9.4651   -2.4400    0.0000 H   0  0  0  0  0  0  0  0  0  0  0  0
    9.4651   -4.0600    0.0000 H   0  0  0  0  0  0  0  0  0  0  0  0
  1 24  1  0  0  0  0
  2 26  1  0  0  0  0
  3 20  1  0  0  0  0
  3 21  1  0  0  0  0
  4 10  1  0  0  0  0
  4 11  1  0  0  0  0
  4 14  1  0  0  0  0
  5 12  1  0  0  0  0
  5 13  1  0  0  0  0
  5 15  1  0  0  0  0
  6 14  2  0  0  0  0
  6 16  1  0  0  0  0
  7 14  1  0  0  0  0
  7 19  2  0  0  0  0
  8 16  2  0  0  0  0
  8 19  1  0  0  0  0
  9 19  1  0  0  0  0
  9 44  1  0  0  0  0
  9 45  1  0  0  0  0
 10 12  1  0  0  0  0
 10 27  1  0  0  0  0
 10 28  1  0  0  0  0
 11 13  1  0  0  0  0
 11 29  1  0  0  0  0
 11 30  1  0  0  0  0
 12 31  1  0  0  0  0
 12 32  1  0  0  0  0
 13 33  1  0  0  0  0
 13 34  1  0  0  0  0
 15 35  1  0  0  0  0
 15 36  1  0  0  0  0
 15 37  1  0  0  0  0
 16 17  1  0  0  0  0
 17 18  1  0  0  0  0
 17 38  1  0  0  0  0
 17 39  1  0  0  0  0
 18 20  1  0  0  0  0
 18 40  1  0  0  0  0
 18 41  1  0  0  0  0
 20 42  1  0  0  0  0
 20 43  1  0  0  0  0
 21 22  2  0  0  0  0
 21 23  1  0  0  0  0
 22 24  1  0  0  0  0
 22 46  1  0  0  0  0
 23 25  2  0  0  0  0
 23 47  1  0  0  0  0
 24 26  2  0  0  0  0
 25 26  1  0  0  0  0
 25 48  1  0  0  0  0
M  END
> <PUBCHEM_COMPOUND_CID>
164618482

> <PUBCHEM_COMPOUND_CANONICALIZED>
1

> <PUBCHEM_CACTVS_COMPLEXITY>
426

> <PUBCHEM_CACTVS_HBOND_ACCEPTOR>
7

> <PUBCHEM_CACTVS_HBOND_DONOR>
1

> <PUBCHEM_CACTVS_ROTATABLE_BOND>
6

> <PUBCHEM_CACTVS_SUBSKEYS>
AAADceB7oAAGAAAAAAAAAAAAAAAAAAAAAAA8WIAAAAAAAAABwAAAHgIQAAAACAbhkyYzFodIFACgACJiJAACiAkgJaAJikA+CoiMbiKFuxqWOCCswBOIqAegQAAAACAAAQAAAAQAQAACAAAACAAAAAAAAA==

> <PUBCHEM_IUPAC_OPENEYE_NAME>
4-[3-(3,4-dichlorophenoxy)propyl]-6-(4-methylpiperazin-1-yl)-1,3,5-triazin-2-amine

> <PUBCHEM_IUPAC_CAS_NAME>
4-[3-(3,4-dichlorophenoxy)propyl]-6-(4-methyl-1-piperazinyl)-1,3,5-triazin-2-amine

> <PUBCHEM_IUPAC_NAME_MARKUP>
4-[3-(3,4-dichlorophenoxy)propyl]-6-(4-methylpiperazin-1-yl)-1,3,5-triazin-2-amine

> <PUBCHEM_IUPAC_NAME>
4-[3-(3,4-dichlorophenoxy)propyl]-6-(4-methylpiperazin-1-yl)-1,3,5-triazin-2-amine

> <PUBCHEM_IUPAC_SYSTEMATIC_NAME>
4-[3-[3,4-bis(chloranyl)phenoxy]propyl]-6-(4-methylpiperazin-1-yl)-1,3,5-triazin-2-amine

> <PUBCHEM_IUPAC_TRADITIONAL_NAME>
[4-[3-(3,4-dichlorophenoxy)propyl]-6-(4-methylpiperazino)-s-triazin-2-yl]amine

> <PUBCHEM_IUPAC_INCHI>
InChI=1S/C17H22Cl2N6O/c1-24-6-8-25(9-7-24)17-22-15(21-16(20)23-17)3-2-10-26-12-4-5-13(18)14(19)11-12/h4-5,11H,2-3,6-10H2,1H3,(H2,20,21,22,23)

> <PUBCHEM_IUPAC_INCHIKEY>
RACXIEAYJFKQIR-UHFFFAOYSA-N

> <PUBCHEM_XLOGP3_AA>
3.5

> <PUBCHEM_EXACT_MASS>
396.1232147

> <PUBCHEM_MOLECULAR_FORMULA>
C17H22Cl2N6O

> <PUBCHEM_MOLECULAR_WEIGHT>
397.3

> <PUBCHEM_OPENEYE_CAN_SMILES>
CN1CCN(CC1)C2=NC(=NC(=N2)N)CCCOC3=CC(=C(C=C3)Cl)Cl

> <PUBCHEM_OPENEYE_ISO_SMILES>
CN1CCN(CC1)C2=NC(=NC(=N2)N)CCCOC3=CC(=C(C=C3)Cl)Cl

> <PUBCHEM_CACTVS_TPSA>
80.4

> <PUBCHEM_MONOISOTOPIC_WEIGHT>
396.1232147

> <PUBCHEM_TOTAL_CHARGE>
0

> <PUBCHEM_HEAVY_ATOM_COUNT>
26

> <PUBCHEM_ATOM_DEF_STEREO_COUNT>
0

> <PUBCHEM_ATOM_UDEF_STEREO_COUNT>
0

> <PUBCHEM_BOND_DEF_STEREO_COUNT>
0

> <PUBCHEM_BOND_UDEF_STEREO_COUNT>
0

> <PUBCHEM_ISOTOPIC_ATOM_COUNT>
0

> <PUBCHEM_COMPONENT_COUNT>
1

> <PUBCHEM_CACTVS_TAUTO_COUNT>
-1

> <PUBCHEM_COORDINATE_TYPE>
1
5
255

> <PUBCHEM_BONDANNOTATIONS>
21  22  8
21  23  8
22  24  8
23  25  8
24  26  8
25  26  8
6  14  8
6  16  8
7  14  8
7  19  8
8  16  8
8  19  8

$$$$
