17866228
  -OEChem-09292322222D

 58 60  0     1  0  0  0  0  0999 V2000
    3.7320    0.2598    0.0000 S   0  0  0  0  0  0  0  0  0  0  0  0
    2.0000    1.2598    0.0000 F   0  0  0  0  0  0  0  0  0  0  0  0
    2.3660   -0.1063    0.0000 F   0  0  0  0  0  0  0  0  0  0  0  0
    3.3660    1.6258    0.0000 F   0  0  0  0  0  0  0  0  0  0  0  0
    4.5981   -0.2402    0.0000 O   0  0  0  0  0  0  0  0  0  0  0  0
    3.2320   -0.6063    0.0000 O   0  0  0  0  0  0  0  0  0  0  0  0
    4.2320    1.1258    0.0000 O   0  0  0  0  0  0  0  0  0  0  0  0
   14.1961    1.2189    0.0000 O   0  0  0  0  0  0  0  0  0  0  0  0
    8.9962    0.2389    0.0000 N   0  0  3  0  0  0  0  0  0  0  0  0
   13.3243   -0.2777    0.0000 N   0  0  0  0  0  0  0  0  0  0  0  0
    8.9962    1.2806    0.0000 C   0  0  0  0  0  0  0  0  0  0  0  0
    8.0901   -0.2749    0.0000 C   0  0  0  0  0  0  0  0  0  0  0  0
    8.0901    1.7944    0.0000 C   0  0  0  0  0  0  0  0  0  0  0  0
    9.8602   -0.2644    0.0000 C   0  0  0  0  0  0  0  0  0  0  0  0
    7.1962    0.2598    0.0000 C   0  0  0  0  0  0  0  0  0  0  0  0
    7.1962    1.2598    0.0000 C   0  0  0  0  0  0  0  0  0  0  0  0
   10.7282    0.2323    0.0000 C   0  0  0  0  0  0  0  0  0  0  0  0
   11.5923   -0.2711    0.0000 C   0  0  0  0  0  0  0  0  0  0  0  0
    6.3301   -0.2402    0.0000 C   0  0  0  0  0  0  0  0  0  0  0  0
    6.3301    1.7598    0.0000 C   0  0  0  0  0  0  0  0  0  0  0  0
    5.4641    0.2598    0.0000 C   0  0  0  0  0  0  0  0  0  0  0  0
   12.4602    0.2256    0.0000 C   0  0  0  0  0  0  0  0  0  0  0  0
    5.4641    1.2598    0.0000 C   0  0  0  0  0  0  0  0  0  0  0  0
   14.1923    0.2189    0.0000 C   0  0  0  0  0  0  0  0  0  0  0  0
    2.8660    0.7598    0.0000 C   0  0  0  0  0  0  0  0  0  0  0  0
   15.0564   -0.2844    0.0000 C   0  0  0  0  0  0  0  0  0  0  0  0
   15.9243    0.2122    0.0000 C   0  0  0  0  0  0  0  0  0  0  0  0
   16.7884   -0.2911    0.0000 C   0  0  0  0  0  0  0  0  0  0  0  0
   17.6564    0.2056    0.0000 C   0  0  0  0  0  0  0  0  0  0  0  0
   16.7845   -1.2911    0.0000 C   0  0  0  0  0  0  0  0  0  0  0  0
   18.5204   -0.2978    0.0000 C   0  0  0  0  0  0  0  0  0  0  0  0
   17.6486   -1.7944    0.0000 C   0  0  0  0  0  0  0  0  0  0  0  0
   18.5166   -1.2978    0.0000 C   0  0  0  0  0  0  0  0  0  0  0  0
    9.6070    1.1745    0.0000 H   0  0  0  0  0  0  0  0  0  0  0  0
    9.2052    1.8643    0.0000 H   0  0  0  0  0  0  0  0  0  0  0  0
    7.6855   -0.7447    0.0000 H   0  0  0  0  0  0  0  0  0  0  0  0
    8.4837   -0.7539    0.0000 H   0  0  0  0  0  0  0  0  0  0  0  0
    8.4837    2.2734    0.0000 H   0  0  0  0  0  0  0  0  0  0  0  0
    7.6855    2.2642    0.0000 H   0  0  0  0  0  0  0  0  0  0  0  0
    9.4599   -0.7378    0.0000 H   0  0  0  0  0  0  0  0  0  0  0  0
   10.2569   -0.7409    0.0000 H   0  0  0  0  0  0  0  0  0  0  0  0
   11.1286    0.7057    0.0000 H   0  0  0  0  0  0  0  0  0  0  0  0
   10.3315    0.7087    0.0000 H   0  0  0  0  0  0  0  0  0  0  0  0
   11.1919   -0.7445    0.0000 H   0  0  0  0  0  0  0  0  0  0  0  0
   11.9890   -0.7475    0.0000 H   0  0  0  0  0  0  0  0  0  0  0  0
    6.3301   -0.8602    0.0000 H   0  0  0  0  0  0  0  0  0  0  0  0
    6.3301    2.3798    0.0000 H   0  0  0  0  0  0  0  0  0  0  0  0
   12.8606    0.6990    0.0000 H   0  0  0  0  0  0  0  0  0  0  0  0
   12.0635    0.7021    0.0000 H   0  0  0  0  0  0  0  0  0  0  0  0
    4.9272    1.5698    0.0000 H   0  0  0  0  0  0  0  0  0  0  0  0
   13.3219   -0.8977    0.0000 H   0  0  0  0  0  0  0  0  0  0  0  0
   15.0540   -0.9044    0.0000 H   0  0  0  0  0  0  0  0  0  0  0  0
   15.9267    0.8322    0.0000 H   0  0  0  0  0  0  0  0  0  0  0  0
   17.6587    0.8256    0.0000 H   0  0  0  0  0  0  0  0  0  0  0  0
   16.2464   -1.5990    0.0000 H   0  0  0  0  0  0  0  0  0  0  0  0
   19.0586    0.0102    0.0000 H   0  0  0  0  0  0  0  0  0  0  0  0
   17.6463   -2.4144    0.0000 H   0  0  0  0  0  0  0  0  0  0  0  0
   19.0523   -1.6098    0.0000 H   0  0  0  0  0  0  0  0  0  0  0  0
  1  5  1  0  0  0  0
  1  6  2  0  0  0  0
  1  7  2  0  0  0  0
  1 25  1  0  0  0  0
  2 25  1  0  0  0  0
  3 25  1  0  0  0  0
  4 25  1  0  0  0  0
  5 21  1  0  0  0  0
  8 24  2  0  0  0  0
  9 11  1  0  0  0  0
  9 12  1  0  0  0  0
  9 14  1  0  0  0  0
 10 22  1  0  0  0  0
 10 24  1  0  0  0  0
 10 51  1  0  0  0  0
 11 13  1  0  0  0  0
 11 34  1  0  0  0  0
 11 35  1  0  0  0  0
 12 15  1  0  0  0  0
 12 36  1  0  0  0  0
 12 37  1  0  0  0  0
 13 16  1  0  0  0  0
 13 38  1  0  0  0  0
 13 39  1  0  0  0  0
 14 17  1  0  0  0  0
 14 40  1  0  0  0  0
 14 41  1  0  0  0  0
 15 16  2  0  0  0  0
 15 19  1  0  0  0  0
 16 20  1  0  0  0  0
 17 18  1  0  0  0  0
 17 42  1  0  0  0  0
 17 43  1  0  0  0  0
 18 22  1  0  0  0  0
 18 44  1  0  0  0  0
 18 45  1  0  0  0  0
 19 21  2  0  0  0  0
 19 46  1  0  0  0  0
 20 23  2  0  0  0  0
 20 47  1  0  0  0  0
 21 23  1  0  0  0  0
 22 48  1  0  0  0  0
 22 49  1  0  0  0  0
 23 50  1  0  0  0  0
 24 26  1  0  0  0  0
 26 27  2  0  0  0  0
 26 52  1  0  0  0  0
 27 28  1  0  0  0  0
 27 53  1  0  0  0  0
 28 29  2  0  0  0  0
 28 30  1  0  0  0  0
 29 31  1  0  0  0  0
 29 54  1  0  0  0  0
 30 32  2  0  0  0  0
 30 55  1  0  0  0  0
 31 33  2  0  0  0  0
 31 56  1  0  0  0  0
 32 33  1  0  0  0  0
 32 57  1  0  0  0  0
 33 58  1  0  0  0  0
M  END
> <PUBCHEM_COMPOUND_CID>
17866228

> <PUBCHEM_COMPOUND_CANONICALIZED>
1

> <PUBCHEM_CACTVS_COMPLEXITY>
761

> <PUBCHEM_CACTVS_HBOND_ACCEPTOR>
8

> <PUBCHEM_CACTVS_HBOND_DONOR>
1

> <PUBCHEM_CACTVS_ROTATABLE_BOND>
9

> <PUBCHEM_CACTVS_SUBSKEYS>
AAADceB7OYBAAAAAAAAAAAAAAAAAAAAAAAA8YIAAAAAAAACxQAAAHwQQAAAADATBmBQwBoPAAAKIAiFSEHCCAAAgIAAIiIAODMgIJiKAkROEMAhk1hGIiYewwJAOoAABAAAQAABAAAIAACAAAAAAAAAAAA==

> <PUBCHEM_IUPAC_OPENEYE_NAME>
[2-[4-[[(E)-3-phenylprop-2-enoyl]amino]butyl]-3,4-dihydro-1H-isoquinolin-7-yl] trifluoromethanesulfonate

> <PUBCHEM_IUPAC_CAS_NAME>
trifluoromethanesulfonic acid [2-[4-[[(E)-1-oxo-3-phenylprop-2-enyl]amino]butyl]-3,4-dihydro-1H-isoquinolin-7-yl] ester

> <PUBCHEM_IUPAC_NAME_MARKUP>
[2-[4-[[(<I>E</I>)-3-phenylprop-2-enoyl]amino]butyl]-3,4-dihydro-1<I>H</I>-isoquinolin-7-yl] trifluoromethanesulfonate

> <PUBCHEM_IUPAC_NAME>
[2-[4-[[(E)-3-phenylprop-2-enoyl]amino]butyl]-3,4-dihydro-1H-isoquinolin-7-yl] trifluoromethanesulfonate

> <PUBCHEM_IUPAC_SYSTEMATIC_NAME>
[2-[4-[[(E)-3-phenylprop-2-enoyl]amino]butyl]-3,4-dihydro-1H-isoquinolin-7-yl] tris(fluoranyl)methanesulfonate

> <PUBCHEM_IUPAC_TRADITIONAL_NAME>
trifluoromethanesulfonic acid [2-[4-[[(E)-3-phenylacryloyl]amino]butyl]-3,4-dihydro-1H-isoquinolin-7-yl] ester

> <PUBCHEM_IUPAC_INCHI>
InChI=1S/C23H25F3N2O4S/c24-23(25,26)33(30,31)32-21-10-9-19-12-15-28(17-20(19)16-21)14-5-4-13-27-22(29)11-8-18-6-2-1-3-7-18/h1-3,6-11,16H,4-5,12-15,17H2,(H,27,29)/b11-8+

> <PUBCHEM_IUPAC_INCHIKEY>
QZPFGFWFHKJBJX-DHZHZOJOSA-N

> <PUBCHEM_XLOGP3_AA>
4.7

> <PUBCHEM_EXACT_MASS>
482.14871294

> <PUBCHEM_MOLECULAR_FORMULA>
C23H25F3N2O4S

> <PUBCHEM_MOLECULAR_WEIGHT>
482.5

> <PUBCHEM_OPENEYE_CAN_SMILES>
C1CN(CC2=C1C=CC(=C2)OS(=O)(=O)C(F)(F)F)CCCCNC(=O)C=CC3=CC=CC=C3

> <PUBCHEM_OPENEYE_ISO_SMILES>
C1CN(CC2=C1C=CC(=C2)OS(=O)(=O)C(F)(F)F)CCCCNC(=O)/C=C/C3=CC=CC=C3

> <PUBCHEM_CACTVS_TPSA>
84.1

> <PUBCHEM_MONOISOTOPIC_WEIGHT>
482.14871294

> <PUBCHEM_TOTAL_CHARGE>
0

> <PUBCHEM_HEAVY_ATOM_COUNT>
33

> <PUBCHEM_ATOM_DEF_STEREO_COUNT>
0

> <PUBCHEM_ATOM_UDEF_STEREO_COUNT>
0

> <PUBCHEM_BOND_DEF_STEREO_COUNT>
1

> <PUBCHEM_BOND_UDEF_STEREO_COUNT>
0

> <PUBCHEM_ISOTOPIC_ATOM_COUNT>
0

> <PUBCHEM_COMPONENT_COUNT>
1

> <PUBCHEM_CACTVS_TAUTO_COUNT>
-1

> <PUBCHEM_COORDINATE_TYPE>
1
5
255

> <PUBCHEM_BONDANNOTATIONS>
15  16  8
15  19  8
16  20  8
19  21  8
20  23  8
21  23  8
28  29  8
28  30  8
29  31  8
30  32  8
31  33  8
32  33  8

$$$$
