44431594
  -OEChem-09292322242D

 73 76  0     0  0  0  0  0  0999 V2000
    4.5981   -1.0000    0.0000 S   0  0  0  0  0  0  0  0  0  0  0  0
    5.5981   -1.0000    0.0000 O   0  0  0  0  0  0  0  0  0  0  0  0
    3.5981   -1.0000    0.0000 O   0  0  0  0  0  0  0  0  0  0  0  0
   11.5263    2.0000    0.0000 O   0  0  0  0  0  0  0  0  0  0  0  0
    2.8660   -2.0000    0.0000 O   0  0  0  0  0  0  0  0  0  0  0  0
    6.3301   -5.0000    0.0000 O   0  5  0  0  0  0  0  0  0  0  0  0
    7.1962   -3.5000    0.0000 O   0  0  0  0  0  0  0  0  0  0  0  0
    8.0622    2.0000    0.0000 N   0  0  0  0  0  0  0  0  0  0  0  0
    4.5981    0.0000    0.0000 N   0  0  0  0  0  0  0  0  0  0  0  0
    9.7942    3.0000    0.0000 N   0  0  0  0  0  0  0  0  0  0  0  0
    6.3301   -4.0000    0.0000 N   0  3  0  0  0  0  0  0  0  0  0  0
    7.1962    1.5000    0.0000 C   0  0  0  0  0  0  0  0  0  0  0  0
    7.1962    0.5000    0.0000 C   0  0  0  0  0  0  0  0  0  0  0  0
    6.3301    2.0000    0.0000 C   0  0  0  0  0  0  0  0  0  0  0  0
    5.4641    0.5000    0.0000 C   0  0  0  0  0  0  0  0  0  0  0  0
    6.3301    0.0000    0.0000 C   0  0  0  0  0  0  0  0  0  0  0  0
    5.4641    1.5000    0.0000 C   0  0  0  0  0  0  0  0  0  0  0  0
    8.9282    1.5000    0.0000 C   0  0  0  0  0  0  0  0  0  0  0  0
    8.0622    3.0000    0.0000 C   0  0  0  0  0  0  0  0  0  0  0  0
    9.7942    2.0000    0.0000 C   0  0  0  0  0  0  0  0  0  0  0  0
    8.9282    3.5000    0.0000 C   0  0  0  0  0  0  0  0  0  0  0  0
   10.6603    3.5000    0.0000 C   0  0  0  0  0  0  0  0  0  0  0  0
    4.5981   -2.0000    0.0000 C   0  0  0  0  0  0  0  0  0  0  0  0
   11.5263    3.0000    0.0000 C   0  0  0  0  0  0  0  0  0  0  0  0
   10.6603    4.5000    0.0000 C   0  0  0  0  0  0  0  0  0  0  0  0
    3.7320   -2.5000    0.0000 C   0  0  0  0  0  0  0  0  0  0  0  0
    5.4641   -2.5000    0.0000 C   0  0  0  0  0  0  0  0  0  0  0  0
   12.3923    3.5000    0.0000 C   0  0  0  0  0  0  0  0  0  0  0  0
   11.5263    5.0000    0.0000 C   0  0  0  0  0  0  0  0  0  0  0  0
   12.3923    4.5000    0.0000 C   0  0  0  0  0  0  0  0  0  0  0  0
    5.4641   -3.5000    0.0000 C   0  0  0  0  0  0  0  0  0  0  0  0
    3.7320   -3.5000    0.0000 C   0  0  0  0  0  0  0  0  0  0  0  0
   12.3923    1.5000    0.0000 C   0  0  0  0  0  0  0  0  0  0  0  0
    4.5981   -4.0000    0.0000 C   0  0  0  0  0  0  0  0  0  0  0  0
   12.3923    0.5000    0.0000 C   0  0  0  0  0  0  0  0  0  0  0  0
   13.2583    2.0000    0.0000 C   0  0  0  0  0  0  0  0  0  0  0  0
    2.0000   -2.5000    0.0000 C   0  0  0  0  0  0  0  0  0  0  0  0
    7.7331    1.1900    0.0000 H   0  0  0  0  0  0  0  0  0  0  0  0
    7.4082   -0.0826    0.0000 H   0  0  0  0  0  0  0  0  0  0  0  0
    7.8067    0.6077    0.0000 H   0  0  0  0  0  0  0  0  0  0  0  0
    6.7287    2.4750    0.0000 H   0  0  0  0  0  0  0  0  0  0  0  0
    5.9316    2.4750    0.0000 H   0  0  0  0  0  0  0  0  0  0  0  0
    5.4641   -0.1200    0.0000 H   0  0  0  0  0  0  0  0  0  0  0  0
    5.9316   -0.4749    0.0000 H   0  0  0  0  0  0  0  0  0  0  0  0
    6.7287   -0.4749    0.0000 H   0  0  0  0  0  0  0  0  0  0  0  0
    5.2520    2.0826    0.0000 H   0  0  0  0  0  0  0  0  0  0  0  0
    4.8535    1.3923    0.0000 H   0  0  0  0  0  0  0  0  0  0  0  0
    8.5297    1.0250    0.0000 H   0  0  0  0  0  0  0  0  0  0  0  0
    9.3267    1.0250    0.0000 H   0  0  0  0  0  0  0  0  0  0  0  0
    7.8501    3.5826    0.0000 H   0  0  0  0  0  0  0  0  0  0  0  0
    7.4516    2.8923    0.0000 H   0  0  0  0  0  0  0  0  0  0  0  0
   10.0063    1.4174    0.0000 H   0  0  0  0  0  0  0  0  0  0  0  0
   10.4048    2.1077    0.0000 H   0  0  0  0  0  0  0  0  0  0  0  0
    9.3267    3.9750    0.0000 H   0  0  0  0  0  0  0  0  0  0  0  0
    8.5297    3.9750    0.0000 H   0  0  0  0  0  0  0  0  0  0  0  0
    4.0611    0.3100    0.0000 H   0  0  0  0  0  0  0  0  0  0  0  0
   10.1233    4.8100    0.0000 H   0  0  0  0  0  0  0  0  0  0  0  0
    6.0010   -2.1900    0.0000 H   0  0  0  0  0  0  0  0  0  0  0  0
   12.9292    3.1900    0.0000 H   0  0  0  0  0  0  0  0  0  0  0  0
   11.5263    5.6200    0.0000 H   0  0  0  0  0  0  0  0  0  0  0  0
   12.9292    4.8100    0.0000 H   0  0  0  0  0  0  0  0  0  0  0  0
    3.1951   -3.8100    0.0000 H   0  0  0  0  0  0  0  0  0  0  0  0
   11.8554    1.1900    0.0000 H   0  0  0  0  0  0  0  0  0  0  0  0
    4.5981   -4.6200    0.0000 H   0  0  0  0  0  0  0  0  0  0  0  0
   11.7723    0.5000    0.0000 H   0  0  0  0  0  0  0  0  0  0  0  0
   12.3923   -0.1200    0.0000 H   0  0  0  0  0  0  0  0  0  0  0  0
   13.0123    0.5000    0.0000 H   0  0  0  0  0  0  0  0  0  0  0  0
   13.5683    1.4631    0.0000 H   0  0  0  0  0  0  0  0  0  0  0  0
   13.7953    2.3100    0.0000 H   0  0  0  0  0  0  0  0  0  0  0  0
   12.9483    2.5369    0.0000 H   0  0  0  0  0  0  0  0  0  0  0  0
    1.6900   -1.9631    0.0000 H   0  0  0  0  0  0  0  0  0  0  0  0
    1.4631   -2.8100    0.0000 H   0  0  0  0  0  0  0  0  0  0  0  0
    2.3100   -3.0369    0.0000 H   0  0  0  0  0  0  0  0  0  0  0  0
  1  2  2  0  0  0  0
  1  3  2  0  0  0  0
  1  9  1  0  0  0  0
  1 23  1  0  0  0  0
  4 24  1  0  0  0  0
  4 33  1  0  0  0  0
  5 26  1  0  0  0  0
  5 37  1  0  0  0  0
  6 11  1  0  0  0  0
  7 11  2  0  0  0  0
  8 12  1  0  0  0  0
  8 18  1  0  0  0  0
  8 19  1  0  0  0  0
  9 15  1  0  0  0  0
  9 56  1  0  0  0  0
 10 20  1  0  0  0  0
 10 21  1  0  0  0  0
 10 22  1  0  0  0  0
 11 31  1  0  0  0  0
 12 13  1  0  0  0  0
 12 14  1  0  0  0  0
 12 38  1  0  0  0  0
 13 16  1  0  0  0  0
 13 39  1  0  0  0  0
 13 40  1  0  0  0  0
 14 17  1  0  0  0  0
 14 41  1  0  0  0  0
 14 42  1  0  0  0  0
 15 16  1  0  0  0  0
 15 17  1  0  0  0  0
 15 43  1  0  0  0  0
 16 44  1  0  0  0  0
 16 45  1  0  0  0  0
 17 46  1  0  0  0  0
 17 47  1  0  0  0  0
 18 20  1  0  0  0  0
 18 48  1  0  0  0  0
 18 49  1  0  0  0  0
 19 21  1  0  0  0  0
 19 50  1  0  0  0  0
 19 51  1  0  0  0  0
 20 52  1  0  0  0  0
 20 53  1  0  0  0  0
 21 54  1  0  0  0  0
 21 55  1  0  0  0  0
 22 24  1  0  0  0  0
 22 25  2  0  0  0  0
 23 26  2  0  0  0  0
 23 27  1  0  0  0  0
 24 28  2  0  0  0  0
 25 29  1  0  0  0  0
 25 57  1  0  0  0  0
 26 32  1  0  0  0  0
 27 31  2  0  0  0  0
 27 58  1  0  0  0  0
 28 30  1  0  0  0  0
 28 59  1  0  0  0  0
 29 30  2  0  0  0  0
 29 60  1  0  0  0  0
 30 61  1  0  0  0  0
 31 34  1  0  0  0  0
 32 34  2  0  0  0  0
 32 62  1  0  0  0  0
 33 35  1  0  0  0  0
 33 36  1  0  0  0  0
 33 63  1  0  0  0  0
 34 64  1  0  0  0  0
 35 65  1  0  0  0  0
 35 66  1  0  0  0  0
 35 67  1  0  0  0  0
 36 68  1  0  0  0  0
 36 69  1  0  0  0  0
 36 70  1  0  0  0  0
 37 71  1  0  0  0  0
 37 72  1  0  0  0  0
 37 73  1  0  0  0  0
M  CHG  2   6  -1  11   1
M  END
> <PUBCHEM_COMPOUND_CID>
44431594

> <PUBCHEM_COMPOUND_CANONICALIZED>
1

> <PUBCHEM_CACTVS_COMPLEXITY>
831

> <PUBCHEM_CACTVS_HBOND_ACCEPTOR>
9

> <PUBCHEM_CACTVS_HBOND_DONOR>
1

> <PUBCHEM_CACTVS_ROTATABLE_BOND>
8

> <PUBCHEM_CACTVS_SUBSKEYS>
AAADcfB7uABAAAAAAAAAAAAAAAAAAAAAAAA8YMEAAAAAAAABQAAAHgQUQAAACDzh0AYyx4NQRAKBACRCQ3DCCBAhIgAoiJoPbIoOZiLEsZuXOCzk0BHY6AewQAAAAEAAACAAMAAAgQAAQABgAAAAAAAAAA==

> <PUBCHEM_IUPAC_OPENEYE_NAME>
N-[4-[4-(2-isopropoxyphenyl)piperazin-1-yl]cyclohexyl]-2-methoxy-5-nitro-benzenesulfonamide

> <PUBCHEM_IUPAC_CAS_NAME>
2-methoxy-5-nitro-N-[4-[4-(2-propan-2-yloxyphenyl)-1-piperazinyl]cyclohexyl]benzenesulfonamide

> <PUBCHEM_IUPAC_NAME_MARKUP>
2-methoxy-5-nitro-<I>N</I>-[4-[4-(2-propan-2-yloxyphenyl)piperazin-1-yl]cyclohexyl]benzenesulfonamide

> <PUBCHEM_IUPAC_NAME>
2-methoxy-5-nitro-N-[4-[4-(2-propan-2-yloxyphenyl)piperazin-1-yl]cyclohexyl]benzenesulfonamide

> <PUBCHEM_IUPAC_SYSTEMATIC_NAME>
2-methoxy-5-nitro-N-[4-[4-(2-propan-2-yloxyphenyl)piperazin-1-yl]cyclohexyl]benzenesulfonamide

> <PUBCHEM_IUPAC_TRADITIONAL_NAME>
N-[4-[4-(2-isopropoxyphenyl)piperazino]cyclohexyl]-2-methoxy-5-nitro-benzenesulfonamide

> <PUBCHEM_IUPAC_INCHI>
InChI=1S/C26H36N4O6S/c1-19(2)36-24-7-5-4-6-23(24)29-16-14-28(15-17-29)21-10-8-20(9-11-21)27-37(33,34)26-18-22(30(31)32)12-13-25(26)35-3/h4-7,12-13,18-21,27H,8-11,14-17H2,1-3H3

> <PUBCHEM_IUPAC_INCHIKEY>
FFXLCCZAXLBJFW-UHFFFAOYSA-N

> <PUBCHEM_XLOGP3_AA>
4.4

> <PUBCHEM_EXACT_MASS>
532.23555605

> <PUBCHEM_MOLECULAR_FORMULA>
C26H36N4O6S

> <PUBCHEM_MOLECULAR_WEIGHT>
532.7

> <PUBCHEM_OPENEYE_CAN_SMILES>
CC(C)OC1=CC=CC=C1N2CCN(CC2)C3CCC(CC3)NS(=O)(=O)C4=C(C=CC(=C4)[N+](=O)[O-])OC

> <PUBCHEM_OPENEYE_ISO_SMILES>
CC(C)OC1=CC=CC=C1N2CCN(CC2)C3CCC(CC3)NS(=O)(=O)C4=C(C=CC(=C4)[N+](=O)[O-])OC

> <PUBCHEM_CACTVS_TPSA>
125

> <PUBCHEM_MONOISOTOPIC_WEIGHT>
532.23555605

> <PUBCHEM_TOTAL_CHARGE>
0

> <PUBCHEM_HEAVY_ATOM_COUNT>
37

> <PUBCHEM_ATOM_DEF_STEREO_COUNT>
0

> <PUBCHEM_ATOM_UDEF_STEREO_COUNT>
0

> <PUBCHEM_BOND_DEF_STEREO_COUNT>
0

> <PUBCHEM_BOND_UDEF_STEREO_COUNT>
0

> <PUBCHEM_ISOTOPIC_ATOM_COUNT>
0

> <PUBCHEM_COMPONENT_COUNT>
1

> <PUBCHEM_CACTVS_TAUTO_COUNT>
-1

> <PUBCHEM_COORDINATE_TYPE>
1
5
255

> <PUBCHEM_BONDANNOTATIONS>
22  24  8
22  25  8
23  26  8
23  27  8
24  28  8
25  29  8
26  32  8
27  31  8
28  30  8
29  30  8
31  34  8
32  34  8

$$$$
