137660751
  -OEChem-09292322002D

 83 87  0     1  0  0  0  0  0999 V2000
    5.3253   -5.4676    0.0000 O   0  0  0  0  0  0  0  0  0  0  0  0
    2.7646    4.9559    0.0000 O   0  0  0  0  0  0  0  0  0  0  0  0
    2.5362   10.2132    0.0000 O   0  0  0  0  0  0  0  0  0  0  0  0
    5.1199   -7.2132    0.0000 N   0  0  0  0  0  0  0  0  0  0  0  0
    3.7612   -6.2693    0.0000 N   0  0  0  0  0  0  0  0  0  0  0  0
    6.8520   -9.2132    0.0000 N   0  0  0  0  0  0  0  0  0  0  0  0
    2.6193    8.4832    0.0000 N   0  0  0  0  0  0  0  0  0  0  0  0
    5.9859   -8.7132    0.0000 C   0  0  1  0  0  0  0  0  0  0  0  0
    4.2539   -7.7132    0.0000 C   0  0  0  0  0  0  0  0  0  0  0  0
    5.9859   -7.7132    0.0000 C   0  0  0  0  0  0  0  0  0  0  0  0
    5.1199   -9.2132    0.0000 C   0  0  0  0  0  0  0  0  0  0  0  0
    4.2539   -8.7132    0.0000 C   0  0  0  0  0  0  0  0  0  0  0  0
    3.3599   -7.1786    0.0000 C   0  0  0  0  0  0  0  0  0  0  0  0
    4.7548   -6.2889    0.0000 C   0  0  0  0  0  0  0  0  0  0  0  0
    3.2234   -5.4262    0.0000 C   0  0  0  0  0  0  0  0  0  0  0  0
    3.6847   -4.5390    0.0000 C   0  0  0  0  0  0  0  0  0  0  0  0
    3.3599   -9.2479    0.0000 C   0  0  0  0  0  0  0  0  0  0  0  0
    2.4539   -7.6924    0.0000 C   0  0  0  0  0  0  0  0  0  0  0  0
    3.1469   -3.6959    0.0000 C   0  0  0  0  0  0  0  0  0  0  0  0
    2.4539   -8.7340    0.0000 C   0  0  0  0  0  0  0  0  0  0  0  0
    3.6082   -2.8086    0.0000 C   0  0  0  0  0  0  0  0  0  0  0  0
    3.0705   -1.9655    0.0000 C   0  0  0  0  0  0  0  0  0  0  0  0
    3.5318   -1.0782    0.0000 C   0  0  0  0  0  0  0  0  0  0  0  0
    6.8520  -10.2132    0.0000 C   0  0  0  0  0  0  0  0  0  0  0  0
    2.9940   -0.2351    0.0000 C   0  0  0  0  0  0  0  0  0  0  0  0
    3.4553    0.6521    0.0000 C   0  0  0  0  0  0  0  0  0  0  0  0
    2.9175    1.4952    0.0000 C   0  0  0  0  0  0  0  0  0  0  0  0
    3.3788    2.3825    0.0000 C   0  0  0  0  0  0  0  0  0  0  0  0
    2.8411    3.2256    0.0000 C   0  0  0  0  0  0  0  0  0  0  0  0
    3.3024    4.1128    0.0000 C   0  0  0  0  0  0  0  0  0  0  0  0
    4.1591    7.6901    0.0000 C   0  0  0  0  0  0  0  0  0  0  0  0
    4.6170    8.5792    0.0000 C   0  0  0  0  0  0  0  0  0  0  0  0
    3.1603    7.6421    0.0000 C   0  0  0  0  0  0  0  0  0  0  0  0
    3.2259    5.8432    0.0000 C   0  0  0  0  0  0  0  0  0  0  0  0
    4.0760    9.4202    0.0000 C   0  0  0  0  0  0  0  0  0  0  0  0
    2.6691    6.7236    0.0000 C   0  0  0  0  0  0  0  0  0  0  0  0
    4.7361    6.8229    0.0000 C   0  0  0  0  0  0  0  0  0  0  0  0
    4.2663    5.8932    0.0000 C   0  0  0  0  0  0  0  0  0  0  0  0
    3.0771    9.3722    0.0000 C   0  0  0  0  0  0  0  0  0  0  0  0
    6.5229   -8.4032    0.0000 H   0  0  0  0  0  0  0  0  0  0  0  0
    6.5965   -7.8209    0.0000 H   0  0  0  0  0  0  0  0  0  0  0  0
    6.1980   -7.1306    0.0000 H   0  0  0  0  0  0  0  0  0  0  0  0
    4.7214   -9.6882    0.0000 H   0  0  0  0  0  0  0  0  0  0  0  0
    5.5184   -9.6882    0.0000 H   0  0  0  0  0  0  0  0  0  0  0  0
    2.7313   -5.0490    0.0000 H   0  0  0  0  0  0  0  0  0  0  0  0
    2.7665   -5.8453    0.0000 H   0  0  0  0  0  0  0  0  0  0  0  0
    4.1768   -4.9161    0.0000 H   0  0  0  0  0  0  0  0  0  0  0  0
    4.1416   -4.1199    0.0000 H   0  0  0  0  0  0  0  0  0  0  0  0
    7.3889   -8.9032    0.0000 H   0  0  0  0  0  0  0  0  0  0  0  0
    3.3671   -9.8678    0.0000 H   0  0  0  0  0  0  0  0  0  0  0  0
    1.9181   -7.3803    0.0000 H   0  0  0  0  0  0  0  0  0  0  0  0
    2.6549   -3.3187    0.0000 H   0  0  0  0  0  0  0  0  0  0  0  0
    2.6900   -4.1150    0.0000 H   0  0  0  0  0  0  0  0  0  0  0  0
    1.9181   -9.0461    0.0000 H   0  0  0  0  0  0  0  0  0  0  0  0
    4.1003   -3.1858    0.0000 H   0  0  0  0  0  0  0  0  0  0  0  0
    4.0651   -2.3895    0.0000 H   0  0  0  0  0  0  0  0  0  0  0  0
    2.5784   -1.5883    0.0000 H   0  0  0  0  0  0  0  0  0  0  0  0
    2.6136   -2.3846    0.0000 H   0  0  0  0  0  0  0  0  0  0  0  0
    4.0238   -1.4554    0.0000 H   0  0  0  0  0  0  0  0  0  0  0  0
    3.9886   -0.6591    0.0000 H   0  0  0  0  0  0  0  0  0  0  0  0
    6.2320  -10.2132    0.0000 H   0  0  0  0  0  0  0  0  0  0  0  0
    6.8520  -10.8332    0.0000 H   0  0  0  0  0  0  0  0  0  0  0  0
    7.4720  -10.2132    0.0000 H   0  0  0  0  0  0  0  0  0  0  0  0
    2.5019    0.1420    0.0000 H   0  0  0  0  0  0  0  0  0  0  0  0
    2.5371   -0.6542    0.0000 H   0  0  0  0  0  0  0  0  0  0  0  0
    3.9474    0.2749    0.0000 H   0  0  0  0  0  0  0  0  0  0  0  0
    3.9122    1.0712    0.0000 H   0  0  0  0  0  0  0  0  0  0  0  0
    2.4255    1.8724    0.0000 H   0  0  0  0  0  0  0  0  0  0  0  0
    2.4606    1.0761    0.0000 H   0  0  0  0  0  0  0  0  0  0  0  0
    3.8709    2.0053    0.0000 H   0  0  0  0  0  0  0  0  0  0  0  0
    3.8357    2.8016    0.0000 H   0  0  0  0  0  0  0  0  0  0  0  0
    2.3490    3.6028    0.0000 H   0  0  0  0  0  0  0  0  0  0  0  0
    2.3842    2.8065    0.0000 H   0  0  0  0  0  0  0  0  0  0  0  0
    3.7944    3.7357    0.0000 H   0  0  0  0  0  0  0  0  0  0  0  0
    3.7592    4.5320    0.0000 H   0  0  0  0  0  0  0  0  0  0  0  0
    5.1105    8.2039    0.0000 H   0  0  0  0  0  0  0  0  0  0  0  0
    5.0723    9.0000    0.0000 H   0  0  0  0  0  0  0  0  0  0  0  0
    4.6478    9.6600    0.0000 H   0  0  0  0  0  0  0  0  0  0  0  0
    3.9391   10.0249    0.0000 H   0  0  0  0  0  0  0  0  0  0  0  0
    2.0496    6.7010    0.0000 H   0  0  0  0  0  0  0  0  0  0  0  0
    5.3550    6.8598    0.0000 H   0  0  0  0  0  0  0  0  0  0  0  0
    4.6037    5.3731    0.0000 H   0  0  0  0  0  0  0  0  0  0  0  0
    2.0000    8.4534    0.0000 H   0  0  0  0  0  0  0  0  0  0  0  0
  1 14  2  0  0  0  0
  2 30  1  0  0  0  0
  2 34  1  0  0  0  0
  3 39  2  0  0  0  0
  4  9  1  0  0  0  0
  4 10  1  0  0  0  0
  4 14  1  0  0  0  0
  5 13  1  0  0  0  0
  5 14  1  0  0  0  0
  5 15  1  0  0  0  0
  8  6  1  6  0  0  0
  6 24  1  0  0  0  0
  6 49  1  0  0  0  0
  7 33  1  0  0  0  0
  7 39  1  0  0  0  0
  7 83  1  0  0  0  0
  8 10  1  0  0  0  0
  8 11  1  0  0  0  0
  8 40  1  0  0  0  0
  9 12  2  0  0  0  0
  9 13  1  0  0  0  0
 10 41  1  0  0  0  0
 10 42  1  0  0  0  0
 11 12  1  0  0  0  0
 11 43  1  0  0  0  0
 11 44  1  0  0  0  0
 12 17  1  0  0  0  0
 13 18  2  0  0  0  0
 15 16  1  0  0  0  0
 15 45  1  0  0  0  0
 15 46  1  0  0  0  0
 16 19  1  0  0  0  0
 16 47  1  0  0  0  0
 16 48  1  0  0  0  0
 17 20  2  0  0  0  0
 17 50  1  0  0  0  0
 18 20  1  0  0  0  0
 18 51  1  0  0  0  0
 19 21  1  0  0  0  0
 19 52  1  0  0  0  0
 19 53  1  0  0  0  0
 20 54  1  0  0  0  0
 21 22  1  0  0  0  0
 21 55  1  0  0  0  0
 21 56  1  0  0  0  0
 22 23  1  0  0  0  0
 22 57  1  0  0  0  0
 22 58  1  0  0  0  0
 23 25  1  0  0  0  0
 23 59  1  0  0  0  0
 23 60  1  0  0  0  0
 24 61  1  0  0  0  0
 24 62  1  0  0  0  0
 24 63  1  0  0  0  0
 25 26  1  0  0  0  0
 25 64  1  0  0  0  0
 25 65  1  0  0  0  0
 26 27  1  0  0  0  0
 26 66  1  0  0  0  0
 26 67  1  0  0  0  0
 27 28  1  0  0  0  0
 27 68  1  0  0  0  0
 27 69  1  0  0  0  0
 28 29  1  0  0  0  0
 28 70  1  0  0  0  0
 28 71  1  0  0  0  0
 29 30  1  0  0  0  0
 29 72  1  0  0  0  0
 29 73  1  0  0  0  0
 30 74  1  0  0  0  0
 30 75  1  0  0  0  0
 31 32  1  0  0  0  0
 31 33  2  0  0  0  0
 31 37  1  0  0  0  0
 32 35  1  0  0  0  0
 32 76  1  0  0  0  0
 32 77  1  0  0  0  0
 33 36  1  0  0  0  0
 34 36  2  0  0  0  0
 34 38  1  0  0  0  0
 35 39  1  0  0  0  0
 35 78  1  0  0  0  0
 35 79  1  0  0  0  0
 36 80  1  0  0  0  0
 37 38  2  0  0  0  0
 37 81  1  0  0  0  0
 38 82  1  0  0  0  0
M  END
> <PUBCHEM_COMPOUND_CID>
137660751

> <PUBCHEM_COMPOUND_CANONICALIZED>
1

> <PUBCHEM_CACTVS_COMPLEXITY>
793

> <PUBCHEM_CACTVS_HBOND_ACCEPTOR>
4

> <PUBCHEM_CACTVS_HBOND_DONOR>
2

> <PUBCHEM_CACTVS_ROTATABLE_BOND>
15

> <PUBCHEM_CACTVS_SUBSKEYS>
AAADcfB/sAAAAAAAAAAAAAAAAAAAAWAAAAA8eIEAAAAAAFixQAAAHgAQAAAADCzhmAYzxoPABACIAiVSUACCCAAhIgAIiIEOfIiMZjLEsZuWOCju1hvI6CeY2aOeIAAAQgACACBAAACEAAQAQAAAAAAAAA==

> <PUBCHEM_IUPAC_OPENEYE_NAME>
(10R)-10-(methylamino)-3-[12-[(2-oxo-3,4-dihydro-1H-quinolin-7-yl)oxy]dodecyl]-1,3-diazatricyclo[6.3.1.04,12]dodeca-4,6,8(12)-trien-2-one

> <PUBCHEM_IUPAC_CAS_NAME>
(10R)-10-(methylamino)-3-[12-[(2-oxo-3,4-dihydro-1H-quinolin-7-yl)oxy]dodecyl]-1,3-diazatricyclo[6.3.1.04,12]dodeca-4,6,8(12)-trien-2-one

> <PUBCHEM_IUPAC_NAME_MARKUP>
(10<I>R</I>)-10-(methylamino)-3-[12-[(2-oxo-3,4-dihydro-1<I>H</I>-quinolin-7-yl)oxy]dodecyl]-1,3-diazatricyclo[6.3.1.0<SUP>4,12</SUP>]dodeca-4,6,8(12)-trien-2-one

> <PUBCHEM_IUPAC_NAME>
(10R)-10-(methylamino)-3-[12-[(2-oxo-3,4-dihydro-1H-quinolin-7-yl)oxy]dodecyl]-1,3-diazatricyclo[6.3.1.04,12]dodeca-4,6,8(12)-trien-2-one

> <PUBCHEM_IUPAC_SYSTEMATIC_NAME>
(10R)-10-(methylamino)-3-[12-[(2-oxidanylidene-3,4-dihydro-1H-quinolin-7-yl)oxy]dodecyl]-1,3-diazatricyclo[6.3.1.04,12]dodeca-4,6,8(12)-trien-2-one

> <PUBCHEM_IUPAC_TRADITIONAL_NAME>
(10R)-3-[12-[(2-keto-3,4-dihydro-1H-quinolin-7-yl)oxy]dodecyl]-10-(methylamino)-1,3-diazatricyclo[6.3.1.04,12]dodeca-4,6,8(12)-trien-2-one

> <PUBCHEM_IUPAC_INCHI>
InChI=1S/C32H44N4O3/c1-33-26-21-25-13-12-14-29-31(25)36(23-26)32(38)35(29)19-10-8-6-4-2-3-5-7-9-11-20-39-27-17-15-24-16-18-30(37)34-28(24)22-27/h12-15,17,22,26,33H,2-11,16,18-21,23H2,1H3,(H,34,37)/t26-/m1/s1

> <PUBCHEM_IUPAC_INCHIKEY>
DNLVWUGWSPNABX-AREMUKBSSA-N

> <PUBCHEM_XLOGP3_AA>
6.1

> <PUBCHEM_EXACT_MASS>
532.34134128

> <PUBCHEM_MOLECULAR_FORMULA>
C32H44N4O3

> <PUBCHEM_MOLECULAR_WEIGHT>
532.7

> <PUBCHEM_OPENEYE_CAN_SMILES>
CNC1CC2=C3C(=CC=C2)N(C(=O)N3C1)CCCCCCCCCCCCOC4=CC5=C(CCC(=O)N5)C=C4

> <PUBCHEM_OPENEYE_ISO_SMILES>
CN[C@@H]1CC2=C3C(=CC=C2)N(C(=O)N3C1)CCCCCCCCCCCCOC4=CC5=C(CCC(=O)N5)C=C4

> <PUBCHEM_CACTVS_TPSA>
73.9

> <PUBCHEM_MONOISOTOPIC_WEIGHT>
532.34134128

> <PUBCHEM_TOTAL_CHARGE>
0

> <PUBCHEM_HEAVY_ATOM_COUNT>
39

> <PUBCHEM_ATOM_DEF_STEREO_COUNT>
1

> <PUBCHEM_ATOM_UDEF_STEREO_COUNT>
0

> <PUBCHEM_BOND_DEF_STEREO_COUNT>
0

> <PUBCHEM_BOND_UDEF_STEREO_COUNT>
0

> <PUBCHEM_ISOTOPIC_ATOM_COUNT>
0

> <PUBCHEM_COMPONENT_COUNT>
1

> <PUBCHEM_CACTVS_TAUTO_COUNT>
-1

> <PUBCHEM_COORDINATE_TYPE>
1
5
255

> <PUBCHEM_BONDANNOTATIONS>
12  17  8
13  18  8
17  20  8
18  20  8
31  33  8
31  37  8
33  36  8
34  36  8
34  38  8
37  38  8
4  14  8
4  9  8
5  13  8
5  14  8
8  6  6
9  12  8
9  13  8

$$$$
