10570898
  -OEChem-09292322512D

 45 48  0     1  0  0  0  0  0999 V2000
   10.7320   -1.2726    0.0000 O   0  0  0  0  0  0  0  0  0  0  0  0
    9.8660   -2.7726    0.0000 O   0  0  0  0  0  0  0  0  0  0  0  0
   12.5180    1.7726    0.0000 O   0  0  0  0  0  0  0  0  0  0  0  0
    2.0000   -0.3134    0.0000 O   0  5  0  0  0  0  0  0  0  0  0  0
    2.8602    1.1899    0.0000 O   0  0  0  0  0  0  0  0  0  0  0  0
    7.2000   -1.2934    0.0000 N   0  0  3  0  0  0  0  0  0  0  0  0
    2.8641    0.1899    0.0000 N   0  3  0  0  0  0  0  0  0  0  0  0
    7.2000   -0.2517    0.0000 C   0  0  0  0  0  0  0  0  0  0  0  0
    8.1060    0.2621    0.0000 C   0  0  0  0  0  0  0  0  0  0  0  0
    8.1060   -1.8072    0.0000 C   0  0  0  0  0  0  0  0  0  0  0  0
    9.0000   -0.2725    0.0000 C   0  0  0  0  0  0  0  0  0  0  0  0
    9.0000   -1.2726    0.0000 C   0  0  0  0  0  0  0  0  0  0  0  0
    6.3359   -1.7967    0.0000 C   0  0  0  0  0  0  0  0  0  0  0  0
    9.8660    0.2275    0.0000 C   0  0  0  0  0  0  0  0  0  0  0  0
    9.8660   -1.7726    0.0000 C   0  0  0  0  0  0  0  0  0  0  0  0
   10.7320   -0.2725    0.0000 C   0  0  0  0  0  0  0  0  0  0  0  0
    5.4679   -1.3000    0.0000 C   0  0  0  0  0  0  0  0  0  0  0  0
    9.8499    1.2690    0.0000 C   0  0  0  0  0  0  0  0  0  0  0  0
   11.6420    0.2343    0.0000 C   0  0  0  0  0  0  0  0  0  0  0  0
   10.7480    1.7967    0.0000 C   0  0  0  0  0  0  0  0  0  0  0  0
    4.6038   -1.8034    0.0000 C   0  0  0  0  0  0  0  0  0  0  0  0
    5.4641   -0.3000    0.0000 C   0  0  0  0  0  0  0  0  0  0  0  0
   11.6501    1.2759    0.0000 C   0  0  0  0  0  0  0  0  0  0  0  0
    3.7359   -1.3067    0.0000 C   0  0  0  0  0  0  0  0  0  0  0  0
    4.5961    0.1966    0.0000 C   0  0  0  0  0  0  0  0  0  0  0  0
    3.7320   -0.3067    0.0000 C   0  0  0  0  0  0  0  0  0  0  0  0
   12.5219    2.7726    0.0000 C   0  0  0  0  0  0  0  0  0  0  0  0
    6.9909    0.3320    0.0000 H   0  0  0  0  0  0  0  0  0  0  0  0
    6.5891   -0.3578    0.0000 H   0  0  0  0  0  0  0  0  0  0  0  0
    8.5106    0.7319    0.0000 H   0  0  0  0  0  0  0  0  0  0  0  0
    7.7124    0.7411    0.0000 H   0  0  0  0  0  0  0  0  0  0  0  0
    7.7124   -2.2862    0.0000 H   0  0  0  0  0  0  0  0  0  0  0  0
    8.5106   -2.2770    0.0000 H   0  0  0  0  0  0  0  0  0  0  0  0
    5.9392   -2.2732    0.0000 H   0  0  0  0  0  0  0  0  0  0  0  0
    6.7362   -2.2701    0.0000 H   0  0  0  0  0  0  0  0  0  0  0  0
    9.3095    1.5727    0.0000 H   0  0  0  0  0  0  0  0  0  0  0  0
   12.1753   -0.0819    0.0000 H   0  0  0  0  0  0  0  0  0  0  0  0
   10.7456    2.4167    0.0000 H   0  0  0  0  0  0  0  0  0  0  0  0
    4.6062   -2.4234    0.0000 H   0  0  0  0  0  0  0  0  0  0  0  0
    5.9998    0.0120    0.0000 H   0  0  0  0  0  0  0  0  0  0  0  0
    3.2002   -1.6188    0.0000 H   0  0  0  0  0  0  0  0  0  0  0  0
    4.5937    0.8166    0.0000 H   0  0  0  0  0  0  0  0  0  0  0  0
   13.1419    2.7702    0.0000 H   0  0  0  0  0  0  0  0  0  0  0  0
   12.5243    3.3925    0.0000 H   0  0  0  0  0  0  0  0  0  0  0  0
   11.9019    2.7749    0.0000 H   0  0  0  0  0  0  0  0  0  0  0  0
  1 15  1  0  0  0  0
  1 16  1  0  0  0  0
  2 15  2  0  0  0  0
  3 23  1  0  0  0  0
  3 27  1  0  0  0  0
  4  7  1  0  0  0  0
  5  7  2  0  0  0  0
  6  8  1  0  0  0  0
  6 10  1  0  0  0  0
  6 13  1  0  0  0  0
  7 26  1  0  0  0  0
  8  9  1  0  0  0  0
  8 28  1  0  0  0  0
  8 29  1  0  0  0  0
  9 11  1  0  0  0  0
  9 30  1  0  0  0  0
  9 31  1  0  0  0  0
 10 12  1  0  0  0  0
 10 32  1  0  0  0  0
 10 33  1  0  0  0  0
 11 12  2  0  0  0  0
 11 14  1  0  0  0  0
 12 15  1  0  0  0  0
 13 17  1  0  0  0  0
 13 34  1  0  0  0  0
 13 35  1  0  0  0  0
 14 16  2  0  0  0  0
 14 18  1  0  0  0  0
 16 19  1  0  0  0  0
 17 21  2  0  0  0  0
 17 22  1  0  0  0  0
 18 20  2  0  0  0  0
 18 36  1  0  0  0  0
 19 23  2  0  0  0  0
 19 37  1  0  0  0  0
 20 23  1  0  0  0  0
 20 38  1  0  0  0  0
 21 24  1  0  0  0  0
 21 39  1  0  0  0  0
 22 25  2  0  0  0  0
 22 40  1  0  0  0  0
 24 26  2  0  0  0  0
 24 41  1  0  0  0  0
 25 26  1  0  0  0  0
 25 42  1  0  0  0  0
 27 43  1  0  0  0  0
 27 44  1  0  0  0  0
 27 45  1  0  0  0  0
M  CHG  2   4  -1   7   1
M  END
> <PUBCHEM_COMPOUND_CID>
10570898

> <PUBCHEM_COMPOUND_CANONICALIZED>
1

> <PUBCHEM_CACTVS_COMPLEXITY>
620

> <PUBCHEM_CACTVS_HBOND_ACCEPTOR>
6

> <PUBCHEM_CACTVS_HBOND_DONOR>
0

> <PUBCHEM_CACTVS_ROTATABLE_BOND>
3

> <PUBCHEM_CACTVS_SUBSKEYS>
AAADceB7OAAAAAAAAAAAAAAAAAAAAAAAAAAwYIEAAAAAAACxQAAAHgAEAAAADAzBmAYyzoMQRACJAiTSSwCCCAAgIgAoiAEObMoMJyqEsZuGOijnwBWI6QeQ8K4OKAAACAAIAABQAAAQABAAAAAAAAAAAA==

> <PUBCHEM_IUPAC_OPENEYE_NAME>
8-methoxy-3-[(4-nitrophenyl)methyl]-2,4-dihydro-1H-chromeno[3,4-c]pyridin-5-one

> <PUBCHEM_IUPAC_CAS_NAME>
8-methoxy-3-[(4-nitrophenyl)methyl]-2,4-dihydro-1H-[1]benzopyrano[3,4-c]pyridin-5-one

> <PUBCHEM_IUPAC_NAME_MARKUP>
8-methoxy-3-[(4-nitrophenyl)methyl]-2,4-dihydro-1<I>H</I>-chromeno[3,4-c]pyridin-5-one

> <PUBCHEM_IUPAC_NAME>
8-methoxy-3-[(4-nitrophenyl)methyl]-2,4-dihydro-1H-chromeno[3,4-c]pyridin-5-one

> <PUBCHEM_IUPAC_SYSTEMATIC_NAME>
8-methoxy-3-[(4-nitrophenyl)methyl]-2,4-dihydro-1H-chromeno[3,4-c]pyridin-5-one

> <PUBCHEM_IUPAC_TRADITIONAL_NAME>
8-methoxy-3-(4-nitrobenzyl)-2,4-dihydro-1H-chromeno[3,4-c]pyridin-5-one

> <PUBCHEM_IUPAC_INCHI>
InChI=1S/C20H18N2O5/c1-26-15-6-7-17-16-8-9-21(12-18(16)20(23)27-19(17)10-15)11-13-2-4-14(5-3-13)22(24)25/h2-7,10H,8-9,11-12H2,1H3

> <PUBCHEM_IUPAC_INCHIKEY>
HHRUJJWXMZRWIG-UHFFFAOYSA-N

> <PUBCHEM_XLOGP3_AA>
2.6

> <PUBCHEM_EXACT_MASS>
366.12157168

> <PUBCHEM_MOLECULAR_FORMULA>
C20H18N2O5

> <PUBCHEM_MOLECULAR_WEIGHT>
366.4

> <PUBCHEM_OPENEYE_CAN_SMILES>
COC1=CC2=C(C=C1)C3=C(CN(CC3)CC4=CC=C(C=C4)[N+](=O)[O-])C(=O)O2

> <PUBCHEM_OPENEYE_ISO_SMILES>
COC1=CC2=C(C=C1)C3=C(CN(CC3)CC4=CC=C(C=C4)[N+](=O)[O-])C(=O)O2

> <PUBCHEM_CACTVS_TPSA>
84.6

> <PUBCHEM_MONOISOTOPIC_WEIGHT>
366.12157168

> <PUBCHEM_TOTAL_CHARGE>
0

> <PUBCHEM_HEAVY_ATOM_COUNT>
27

> <PUBCHEM_ATOM_DEF_STEREO_COUNT>
0

> <PUBCHEM_ATOM_UDEF_STEREO_COUNT>
0

> <PUBCHEM_BOND_DEF_STEREO_COUNT>
0

> <PUBCHEM_BOND_UDEF_STEREO_COUNT>
0

> <PUBCHEM_ISOTOPIC_ATOM_COUNT>
0

> <PUBCHEM_COMPONENT_COUNT>
1

> <PUBCHEM_CACTVS_TAUTO_COUNT>
-1

> <PUBCHEM_COORDINATE_TYPE>
1
5
255

> <PUBCHEM_BONDANNOTATIONS>
1  15  8
1  16  8
11  12  8
11  14  8
12  15  8
14  16  8
14  18  8
16  19  8
17  21  8
17  22  8
18  20  8
19  23  8
20  23  8
21  24  8
22  25  8
24  26  8
25  26  8

$$$$
