49799689
  -OEChem-09292322302D

 57 59  0     0  0  0  0  0  0999 V2000
   11.1706    6.6653    0.0000 I   0  0  0  0  0  0  0  0  0  0  0  0
    9.1440    3.6832    0.0000 O   0  0  0  0  0  0  0  0  0  0  0  0
    1.4030    2.6200    0.0000 O   0  0  0  0  0  0  0  0  0  0  0  0
    4.3119   10.4134    0.0000 O   0  0  0  0  0  0  0  0  0  0  0  0
    6.9100    9.9134    0.0000 O   0  0  0  0  0  0  0  0  0  0  0  0
    5.1779    8.9134    0.0000 O   0  0  0  0  0  0  0  0  0  0  0  0
    6.0440   11.4134    0.0000 O   0  0  0  0  0  0  0  0  0  0  0  0
    6.2364    3.5815    0.0000 N   0  0  0  0  0  0  0  0  0  0  0  0
    4.9473    0.8153    0.0000 N   0  0  0  0  0  0  0  0  0  0  0  0
    8.1934    3.9939    0.0000 C   0  0  0  0  0  0  0  0  0  0  0  0
    7.5256    4.7382    0.0000 C   0  0  0  0  0  0  0  0  0  0  0  0
    7.8828    3.0434    0.0000 C   0  0  0  0  0  0  0  0  0  0  0  0
    6.5471    4.5320    0.0000 C   0  0  0  0  0  0  0  0  0  0  0  0
    6.9043    2.8372    0.0000 C   0  0  0  0  0  0  0  0  0  0  0  0
    8.9377    4.6617    0.0000 C   0  0  0  0  0  0  0  0  0  0  0  0
    5.2579    3.3752    0.0000 C   0  0  0  0  0  0  0  0  0  0  0  0
    4.9473    2.4247    0.0000 C   0  0  0  0  0  0  0  0  0  0  0  0
    8.7315    5.6403    0.0000 C   0  0  0  0  0  0  0  0  0  0  0  0
    9.8883    4.3511    0.0000 C   0  0  0  0  0  0  0  0  0  0  0  0
    4.0010    2.1200    0.0000 C   0  0  0  0  0  0  0  0  0  0  0  0
    5.5309    1.6200    0.0000 C   0  0  0  0  0  0  0  0  0  0  0  0
    4.0010    1.1200    0.0000 C   0  0  0  0  0  0  0  0  0  0  0  0
    9.4758    6.3081    0.0000 C   0  0  0  0  0  0  0  0  0  0  0  0
   10.6326    5.0189    0.0000 C   0  0  0  0  0  0  0  0  0  0  0  0
    3.1350    2.6200    0.0000 C   0  0  0  0  0  0  0  0  0  0  0  0
   10.4263    5.9974    0.0000 C   0  0  0  0  0  0  0  0  0  0  0  0
    3.1350    0.6200    0.0000 C   0  0  0  0  0  0  0  0  0  0  0  0
    2.2690    2.1200    0.0000 C   0  0  0  0  0  0  0  0  0  0  0  0
    2.2690    1.1200    0.0000 C   0  0  0  0  0  0  0  0  0  0  0  0
    0.5369    2.1200    0.0000 C   0  0  0  0  0  0  0  0  0  0  0  0
    5.1779    9.9134    0.0000 C   0  0  0  0  0  0  0  0  0  0  0  0
    6.0440   10.4134    0.0000 C   0  0  0  0  0  0  0  0  0  0  0  0
    8.0520    5.0658    0.0000 H   0  0  0  0  0  0  0  0  0  0  0  0
    7.2943    5.3135    0.0000 H   0  0  0  0  0  0  0  0  0  0  0  0
    7.9033    2.4237    0.0000 H   0  0  0  0  0  0  0  0  0  0  0  0
    8.4966    2.9560    0.0000 H   0  0  0  0  0  0  0  0  0  0  0  0
    6.5265    5.1516    0.0000 H   0  0  0  0  0  0  0  0  0  0  0  0
    5.9333    4.6193    0.0000 H   0  0  0  0  0  0  0  0  0  0  0  0
    6.3779    2.5095    0.0000 H   0  0  0  0  0  0  0  0  0  0  0  0
    7.1355    2.2619    0.0000 H   0  0  0  0  0  0  0  0  0  0  0  0
    5.2374    3.9949    0.0000 H   0  0  0  0  0  0  0  0  0  0  0  0
    4.6441    3.4626    0.0000 H   0  0  0  0  0  0  0  0  0  0  0  0
    9.2718    3.0766    0.0000 H   0  0  0  0  0  0  0  0  0  0  0  0
    8.1422    5.8329    0.0000 H   0  0  0  0  0  0  0  0  0  0  0  0
   10.0161    3.7444    0.0000 H   0  0  0  0  0  0  0  0  0  0  0  0
    6.1509    1.6200    0.0000 H   0  0  0  0  0  0  0  0  0  0  0  0
    5.1399    0.2259    0.0000 H   0  0  0  0  0  0  0  0  0  0  0  0
    9.3480    6.9148    0.0000 H   0  0  0  0  0  0  0  0  0  0  0  0
   11.2219    4.8263    0.0000 H   0  0  0  0  0  0  0  0  0  0  0  0
    3.1350    3.2400    0.0000 H   0  0  0  0  0  0  0  0  0  0  0  0
    3.1350    0.0000    0.0000 H   0  0  0  0  0  0  0  0  0  0  0  0
    1.7320    0.8100    0.0000 H   0  0  0  0  0  0  0  0  0  0  0  0
    0.2269    2.6569    0.0000 H   0  0  0  0  0  0  0  0  0  0  0  0
    0.0000    1.8100    0.0000 H   0  0  0  0  0  0  0  0  0  0  0  0
    0.8469    1.5831    0.0000 H   0  0  0  0  0  0  0  0  0  0  0  0
    3.7750   10.1034    0.0000 H   0  0  0  0  0  0  0  0  0  0  0  0
    7.4469   10.2234    0.0000 H   0  0  0  0  0  0  0  0  0  0  0  0
  1 26  1  0  0  0  0
  2 10  1  0  0  0  0
  2 43  1  0  0  0  0
  3 28  1  0  0  0  0
  3 30  1  0  0  0  0
  4 31  1  0  0  0  0
  4 56  1  0  0  0  0
  5 32  1  0  0  0  0
  5 57  1  0  0  0  0
  6 31  2  0  0  0  0
  7 32  2  0  0  0  0
  8 13  1  0  0  0  0
  8 14  1  0  0  0  0
  8 16  1  0  0  0  0
  9 21  1  0  0  0  0
  9 22  1  0  0  0  0
  9 47  1  0  0  0  0
 10 11  1  0  0  0  0
 10 12  1  0  0  0  0
 10 15  1  0  0  0  0
 11 13  1  0  0  0  0
 11 33  1  0  0  0  0
 11 34  1  0  0  0  0
 12 14  1  0  0  0  0
 12 35  1  0  0  0  0
 12 36  1  0  0  0  0
 13 37  1  0  0  0  0
 13 38  1  0  0  0  0
 14 39  1  0  0  0  0
 14 40  1  0  0  0  0
 15 18  2  0  0  0  0
 15 19  1  0  0  0  0
 16 17  1  0  0  0  0
 16 41  1  0  0  0  0
 16 42  1  0  0  0  0
 17 20  1  0  0  0  0
 17 21  2  0  0  0  0
 18 23  1  0  0  0  0
 18 44  1  0  0  0  0
 19 24  2  0  0  0  0
 19 45  1  0  0  0  0
 20 22  2  0  0  0  0
 20 25  1  0  0  0  0
 21 46  1  0  0  0  0
 22 27  1  0  0  0  0
 23 26  2  0  0  0  0
 23 48  1  0  0  0  0
 24 26  1  0  0  0  0
 24 49  1  0  0  0  0
 25 28  2  0  0  0  0
 25 50  1  0  0  0  0
 27 29  2  0  0  0  0
 27 51  1  0  0  0  0
 28 29  1  0  0  0  0
 29 52  1  0  0  0  0
 30 53  1  0  0  0  0
 30 54  1  0  0  0  0
 30 55  1  0  0  0  0
 31 32  1  0  0  0  0
M  END
> <PUBCHEM_COMPOUND_CID>
49799689

> <PUBCHEM_COMPOUND_CANONICALIZED>
1

> <PUBCHEM_CACTVS_COMPLEXITY>
533

> <PUBCHEM_CACTVS_HBOND_ACCEPTOR>
7

> <PUBCHEM_CACTVS_HBOND_DONOR>
4

> <PUBCHEM_CACTVS_ROTATABLE_BOND>
5

> <PUBCHEM_CACTVS_SUBSKEYS>
AAADceB7OAAAAgAAAAAAAAAAAAAAAWAAAAA8YIAAAAAAAFgB9AAAHgAwCAAADEzDngY+zvPJlgCoAzT3TAKCiCAxIiAI2aB+bJgNJuLE8ZuEcChm0BHJ+Aew0PIOgEABAAACAAAAgAIAAAQAAAAAAAAAAA==

> <PUBCHEM_IUPAC_OPENEYE_NAME>
4-(4-iodophenyl)-1-[(5-methoxy-1H-indol-3-yl)methyl]piperidin-4-ol;oxalic acid

> <PUBCHEM_IUPAC_CAS_NAME>
4-(4-iodophenyl)-1-[(5-methoxy-1H-indol-3-yl)methyl]-4-piperidinol;oxalic acid

> <PUBCHEM_IUPAC_NAME_MARKUP>
4-(4-iodophenyl)-1-[(5-methoxy-1<I>H</I>-indol-3-yl)methyl]piperidin-4-ol;oxalic acid

> <PUBCHEM_IUPAC_NAME>
4-(4-iodophenyl)-1-[(5-methoxy-1H-indol-3-yl)methyl]piperidin-4-ol;oxalic acid

> <PUBCHEM_IUPAC_SYSTEMATIC_NAME>
ethanedioic acid;4-(4-iodophenyl)-1-[(5-methoxy-1H-indol-3-yl)methyl]piperidin-4-ol

> <PUBCHEM_IUPAC_TRADITIONAL_NAME>
4-(4-iodophenyl)-1-[(5-methoxy-1H-indol-3-yl)methyl]piperidin-4-ol;oxalic acid

> <PUBCHEM_IUPAC_INCHI>
InChI=1S/C21H23IN2O2.C2H2O4/c1-26-18-6-7-20-19(12-18)15(13-23-20)14-24-10-8-21(25,9-11-24)16-2-4-17(22)5-3-16;3-1(4)2(5)6/h2-7,12-13,23,25H,8-11,14H2,1H3;(H,3,4)(H,5,6)

> <PUBCHEM_IUPAC_INCHIKEY>
GLMVMQXWYMJJQA-UHFFFAOYSA-N

> <PUBCHEM_EXACT_MASS>
552.07573

> <PUBCHEM_MOLECULAR_FORMULA>
C23H25IN2O6

> <PUBCHEM_MOLECULAR_WEIGHT>
552.4

> <PUBCHEM_OPENEYE_CAN_SMILES>
COC1=CC2=C(C=C1)NC=C2CN3CCC(CC3)(C4=CC=C(C=C4)I)O.C(=O)(C(=O)O)O

> <PUBCHEM_OPENEYE_ISO_SMILES>
COC1=CC2=C(C=C1)NC=C2CN3CCC(CC3)(C4=CC=C(C=C4)I)O.C(=O)(C(=O)O)O

> <PUBCHEM_CACTVS_TPSA>
123

> <PUBCHEM_MONOISOTOPIC_WEIGHT>
552.07573

> <PUBCHEM_TOTAL_CHARGE>
0

> <PUBCHEM_HEAVY_ATOM_COUNT>
32

> <PUBCHEM_ATOM_DEF_STEREO_COUNT>
0

> <PUBCHEM_ATOM_UDEF_STEREO_COUNT>
0

> <PUBCHEM_BOND_DEF_STEREO_COUNT>
0

> <PUBCHEM_BOND_UDEF_STEREO_COUNT>
0

> <PUBCHEM_ISOTOPIC_ATOM_COUNT>
0

> <PUBCHEM_COMPONENT_COUNT>
2

> <PUBCHEM_CACTVS_TAUTO_COUNT>
-1

> <PUBCHEM_COORDINATE_TYPE>
1
5
255

> <PUBCHEM_BONDANNOTATIONS>
15  18  8
15  19  8
17  20  8
17  21  8
18  23  8
19  24  8
20  22  8
20  25  8
22  27  8
23  26  8
24  26  8
25  28  8
27  29  8
28  29  8
9  21  8
9  22  8

$$$$
