15167701
  -OEChem-09292322042D

 51 52  0     1  0  0  0  0  0999 V2000
    3.7320    0.4291    0.0000 O   0  0  0  0  0  0  0  0  0  0  0  0
    2.8660   -1.0709    0.0000 O   0  0  0  0  0  0  0  0  0  0  0  0
    2.8660   -3.0709    0.0000 O   0  0  0  0  0  0  0  0  0  0  0  0
    6.4347    2.9236    0.0000 N   0  0  3  0  0  0  0  0  0  0  0  0
    5.4641    0.4291    0.0000 N   0  0  0  0  0  0  0  0  0  0  0  0
    6.3301    1.9291    0.0000 C   0  0  1  0  0  0  0  0  0  0  0  0
    7.2437    1.5224    0.0000 C   0  0  0  0  0  0  0  0  0  0  0  0
    7.9128    2.2655    0.0000 C   0  0  0  0  0  0  0  0  0  0  0  0
    7.4128    3.1315    0.0000 C   0  0  0  0  0  0  0  0  0  0  0  0
    5.4641    1.4291    0.0000 C   0  0  0  0  0  0  0  0  0  0  0  0
    5.6915    3.5928    0.0000 C   0  0  0  0  0  0  0  0  0  0  0  0
    5.8994    4.5709    0.0000 C   0  0  0  0  0  0  0  0  0  0  0  0
    4.5981   -0.0709    0.0000 C   0  0  0  0  0  0  0  0  0  0  0  0
    4.5981   -1.0709    0.0000 C   0  0  0  0  0  0  0  0  0  0  0  0
    5.4641   -1.5709    0.0000 C   0  0  0  0  0  0  0  0  0  0  0  0
    5.4641   -2.5709    0.0000 C   0  0  0  0  0  0  0  0  0  0  0  0
    3.7320   -1.5709    0.0000 C   0  0  0  0  0  0  0  0  0  0  0  0
    6.3301   -3.0709    0.0000 C   0  0  0  0  0  0  0  0  0  0  0  0
    3.7320   -2.5709    0.0000 C   0  0  0  0  0  0  0  0  0  0  0  0
    4.5981   -3.0709    0.0000 C   0  0  0  0  0  0  0  0  0  0  0  0
    6.3301   -4.0709    0.0000 C   0  0  0  0  0  0  0  0  0  0  0  0
    7.1962   -4.5709    0.0000 C   0  0  0  0  0  0  0  0  0  0  0  0
    2.0000   -1.5709    0.0000 C   0  0  0  0  0  0  0  0  0  0  0  0
    5.8102    2.2668    0.0000 H   0  0  0  0  0  0  0  0  0  0  0  0
    6.9337    0.9854    0.0000 H   0  0  0  0  0  0  0  0  0  0  0  0
    7.7453    1.1579    0.0000 H   0  0  0  0  0  0  0  0  0  0  0  0
    8.3277    1.8048    0.0000 H   0  0  0  0  0  0  0  0  0  0  0  0
    8.4144    2.6299    0.0000 H   0  0  0  0  0  0  0  0  0  0  0  0
    7.9792    3.3837    0.0000 H   0  0  0  0  0  0  0  0  0  0  0  0
    7.2212    3.7212    0.0000 H   0  0  0  0  0  0  0  0  0  0  0  0
    5.2520    2.0117    0.0000 H   0  0  0  0  0  0  0  0  0  0  0  0
    4.8535    1.3214    0.0000 H   0  0  0  0  0  0  0  0  0  0  0  0
    5.1167    3.8250    0.0000 H   0  0  0  0  0  0  0  0  0  0  0  0
    5.3630    3.0670    0.0000 H   0  0  0  0  0  0  0  0  0  0  0  0
    6.0010    0.1191    0.0000 H   0  0  0  0  0  0  0  0  0  0  0  0
    6.5059    4.4420    0.0000 H   0  0  0  0  0  0  0  0  0  0  0  0
    6.0283    5.1774    0.0000 H   0  0  0  0  0  0  0  0  0  0  0  0
    5.2930    4.6998    0.0000 H   0  0  0  0  0  0  0  0  0  0  0  0
    6.0010   -1.2609    0.0000 H   0  0  0  0  0  0  0  0  0  0  0  0
    6.9407   -3.1786    0.0000 H   0  0  0  0  0  0  0  0  0  0  0  0
    6.5422   -2.4883    0.0000 H   0  0  0  0  0  0  0  0  0  0  0  0
    4.5981   -3.6909    0.0000 H   0  0  0  0  0  0  0  0  0  0  0  0
    5.7196   -3.9632    0.0000 H   0  0  0  0  0  0  0  0  0  0  0  0
    6.1181   -4.6535    0.0000 H   0  0  0  0  0  0  0  0  0  0  0  0
    6.8862   -5.1078    0.0000 H   0  0  0  0  0  0  0  0  0  0  0  0
    7.7331   -4.8809    0.0000 H   0  0  0  0  0  0  0  0  0  0  0  0
    7.5062   -4.0340    0.0000 H   0  0  0  0  0  0  0  0  0  0  0  0
    2.8660   -3.6909    0.0000 H   0  0  0  0  0  0  0  0  0  0  0  0
    1.6900   -1.0340    0.0000 H   0  0  0  0  0  0  0  0  0  0  0  0
    1.4631   -1.8809    0.0000 H   0  0  0  0  0  0  0  0  0  0  0  0
    2.3100   -2.1078    0.0000 H   0  0  0  0  0  0  0  0  0  0  0  0
  1 13  2  0  0  0  0
  2 17  1  0  0  0  0
  2 23  1  0  0  0  0
  3 19  1  0  0  0  0
  3 48  1  0  0  0  0
  4  6  1  0  0  0  0
  4  9  1  0  0  0  0
  4 11  1  0  0  0  0
  5 10  1  0  0  0  0
  5 13  1  0  0  0  0
  5 35  1  0  0  0  0
  6  7  1  0  0  0  0
  6 10  1  1  0  0  0
  6 24  1  0  0  0  0
  7  8  1  0  0  0  0
  7 25  1  0  0  0  0
  7 26  1  0  0  0  0
  8  9  1  0  0  0  0
  8 27  1  0  0  0  0
  8 28  1  0  0  0  0
  9 29  1  0  0  0  0
  9 30  1  0  0  0  0
 10 31  1  0  0  0  0
 10 32  1  0  0  0  0
 11 12  1  0  0  0  0
 11 33  1  0  0  0  0
 11 34  1  0  0  0  0
 12 36  1  0  0  0  0
 12 37  1  0  0  0  0
 12 38  1  0  0  0  0
 13 14  1  0  0  0  0
 14 15  1  0  0  0  0
 14 17  2  0  0  0  0
 15 16  2  0  0  0  0
 15 39  1  0  0  0  0
 16 18  1  0  0  0  0
 16 20  1  0  0  0  0
 17 19  1  0  0  0  0
 18 21  1  0  0  0  0
 18 40  1  0  0  0  0
 18 41  1  0  0  0  0
 19 20  2  0  0  0  0
 20 42  1  0  0  0  0
 21 22  1  0  0  0  0
 21 43  1  0  0  0  0
 21 44  1  0  0  0  0
 22 45  1  0  0  0  0
 22 46  1  0  0  0  0
 22 47  1  0  0  0  0
 23 49  1  0  0  0  0
 23 50  1  0  0  0  0
 23 51  1  0  0  0  0
M  END
> <PUBCHEM_COMPOUND_CID>
15167701

> <PUBCHEM_COMPOUND_CANONICALIZED>
1

> <PUBCHEM_CACTVS_COMPLEXITY>
377

> <PUBCHEM_CACTVS_HBOND_ACCEPTOR>
4

> <PUBCHEM_CACTVS_HBOND_DONOR>
2

> <PUBCHEM_CACTVS_ROTATABLE_BOND>
7

> <PUBCHEM_CACTVS_SUBSKEYS>
AAADceB7MAAAAAAAAAAAAAAAAAAAAWAAAAAwAAAAAAAAAAABAAAAHgAQCAAADCzBmAYyBoPABgCIAiFSEACCCAAkIAAAiIEOjMgNZjaGtRuUcWtm9hGLuYe6yPCOIAADAAAIQABAAAYAABCAAAAAAAAAAA==

> <PUBCHEM_IUPAC_OPENEYE_NAME>
N-[[(2S)-1-ethylpyrrolidin-2-yl]methyl]-3-hydroxy-2-methoxy-5-propyl-benzamide

> <PUBCHEM_IUPAC_CAS_NAME>
N-[[(2S)-1-ethyl-2-pyrrolidinyl]methyl]-3-hydroxy-2-methoxy-5-propylbenzamide

> <PUBCHEM_IUPAC_NAME_MARKUP>
<I>N</I>-[[(2<I>S</I>)-1-ethylpyrrolidin-2-yl]methyl]-3-hydroxy-2-methoxy-5-propylbenzamide

> <PUBCHEM_IUPAC_NAME>
N-[[(2S)-1-ethylpyrrolidin-2-yl]methyl]-3-hydroxy-2-methoxy-5-propylbenzamide

> <PUBCHEM_IUPAC_SYSTEMATIC_NAME>
N-[[(2S)-1-ethylpyrrolidin-2-yl]methyl]-2-methoxy-3-oxidanyl-5-propyl-benzamide

> <PUBCHEM_IUPAC_TRADITIONAL_NAME>
N-[[(2S)-1-ethylpyrrolidin-2-yl]methyl]-3-hydroxy-2-methoxy-5-propyl-benzamide

> <PUBCHEM_IUPAC_INCHI>
InChI=1S/C18H28N2O3/c1-4-7-13-10-15(17(23-3)16(21)11-13)18(22)19-12-14-8-6-9-20(14)5-2/h10-11,14,21H,4-9,12H2,1-3H3,(H,19,22)/t14-/m0/s1

> <PUBCHEM_IUPAC_INCHIKEY>
NDOACRCCZRNDRC-AWEZNQCLSA-N

> <PUBCHEM_XLOGP3>
2.4

> <PUBCHEM_EXACT_MASS>
320.20999276

> <PUBCHEM_MOLECULAR_FORMULA>
C18H28N2O3

> <PUBCHEM_MOLECULAR_WEIGHT>
320.4

> <PUBCHEM_OPENEYE_CAN_SMILES>
CCCC1=CC(=C(C(=C1)O)OC)C(=O)NCC2CCCN2CC

> <PUBCHEM_OPENEYE_ISO_SMILES>
CCCC1=CC(=C(C(=C1)O)OC)C(=O)NC[C@@H]2CCCN2CC

> <PUBCHEM_CACTVS_TPSA>
61.8

> <PUBCHEM_MONOISOTOPIC_WEIGHT>
320.20999276

> <PUBCHEM_TOTAL_CHARGE>
0

> <PUBCHEM_HEAVY_ATOM_COUNT>
23

> <PUBCHEM_ATOM_DEF_STEREO_COUNT>
1

> <PUBCHEM_ATOM_UDEF_STEREO_COUNT>
0

> <PUBCHEM_BOND_DEF_STEREO_COUNT>
0

> <PUBCHEM_BOND_UDEF_STEREO_COUNT>
0

> <PUBCHEM_ISOTOPIC_ATOM_COUNT>
0

> <PUBCHEM_COMPONENT_COUNT>
1

> <PUBCHEM_CACTVS_TAUTO_COUNT>
-1

> <PUBCHEM_COORDINATE_TYPE>
1
5
255

> <PUBCHEM_BONDANNOTATIONS>
14  15  8
14  17  8
15  16  8
16  20  8
17  19  8
19  20  8
6  10  5

$$$$
