90645291
  -OEChem-09292322352D

 51 52  0     0  0  0  0  0  0999 V2000
    7.4641    5.4151    0.0000 Cl  0  0  0  0  0  0  0  0  0  0  0  0
    4.9641    2.8170    0.0000 O   0  0  0  0  0  0  0  0  0  0  0  0
    3.7320   -4.0490    0.0000 O   0  0  0  0  0  0  0  0  0  0  0  0
    2.8660   -2.5490    0.0000 O   0  0  0  0  0  0  0  0  0  0  0  0
    5.4641   -0.0490    0.0000 N   0  0  0  0  0  0  0  0  0  0  0  0
    4.5981   -2.5490    0.0000 N   0  0  0  0  0  0  0  0  0  0  0  0
    5.4641    1.9510    0.0000 C   0  0  0  0  0  0  0  0  0  0  0  0
    6.3301    1.4510    0.0000 C   0  0  0  0  0  0  0  0  0  0  0  0
    4.5981    1.4510    0.0000 C   0  0  0  0  0  0  0  0  0  0  0  0
    6.3301    0.4510    0.0000 C   0  0  0  0  0  0  0  0  0  0  0  0
    4.5981    0.4510    0.0000 C   0  0  0  0  0  0  0  0  0  0  0  0
    5.9641    2.8170    0.0000 C   0  0  0  0  0  0  0  0  0  0  0  0
    5.4641   -1.0490    0.0000 C   0  0  0  0  0  0  0  0  0  0  0  0
    4.5981   -1.5490    0.0000 C   0  0  0  0  0  0  0  0  0  0  0  0
    5.4641    3.6830    0.0000 C   0  0  0  0  0  0  0  0  0  0  0  0
    6.9641    2.8170    0.0000 C   0  0  0  0  0  0  0  0  0  0  0  0
    5.9641    4.5490    0.0000 C   0  0  0  0  0  0  0  0  0  0  0  0
    7.4641    3.6830    0.0000 C   0  0  0  0  0  0  0  0  0  0  0  0
    6.9641    4.5490    0.0000 C   0  0  0  0  0  0  0  0  0  0  0  0
    2.8660   -4.5490    0.0000 C   0  0  0  0  0  0  0  0  0  0  0  0
    3.7320   -3.0490    0.0000 C   0  0  0  0  0  0  0  0  0  0  0  0
    2.0000   -5.0490    0.0000 C   0  0  0  0  0  0  0  0  0  0  0  0
    3.3660   -5.4151    0.0000 C   0  0  0  0  0  0  0  0  0  0  0  0
    2.3660   -3.6830    0.0000 C   0  0  0  0  0  0  0  0  0  0  0  0
    6.9407    1.3433    0.0000 H   0  0  0  0  0  0  0  0  0  0  0  0
    6.5422    2.0336    0.0000 H   0  0  0  0  0  0  0  0  0  0  0  0
    4.3860    2.0336    0.0000 H   0  0  0  0  0  0  0  0  0  0  0  0
    3.9875    1.3433    0.0000 H   0  0  0  0  0  0  0  0  0  0  0  0
    6.5422   -0.1316    0.0000 H   0  0  0  0  0  0  0  0  0  0  0  0
    6.9407    0.5586    0.0000 H   0  0  0  0  0  0  0  0  0  0  0  0
    3.9875    0.5586    0.0000 H   0  0  0  0  0  0  0  0  0  0  0  0
    4.3860   -0.1316    0.0000 H   0  0  0  0  0  0  0  0  0  0  0  0
    5.6762   -1.6316    0.0000 H   0  0  0  0  0  0  0  0  0  0  0  0
    6.0747   -0.9414    0.0000 H   0  0  0  0  0  0  0  0  0  0  0  0
    4.3441    2.8170    0.0000 H   0  0  0  0  0  0  0  0  0  0  0  0
    4.3860   -0.9664    0.0000 H   0  0  0  0  0  0  0  0  0  0  0  0
    3.9875   -1.6567    0.0000 H   0  0  0  0  0  0  0  0  0  0  0  0
    4.8441    3.6830    0.0000 H   0  0  0  0  0  0  0  0  0  0  0  0
    7.2741    2.2800    0.0000 H   0  0  0  0  0  0  0  0  0  0  0  0
    5.1350   -2.8590    0.0000 H   0  0  0  0  0  0  0  0  0  0  0  0
    5.6541    5.0860    0.0000 H   0  0  0  0  0  0  0  0  0  0  0  0
    8.0841    3.6830    0.0000 H   0  0  0  0  0  0  0  0  0  0  0  0
    1.6900   -4.5121    0.0000 H   0  0  0  0  0  0  0  0  0  0  0  0
    1.4631   -5.3590    0.0000 H   0  0  0  0  0  0  0  0  0  0  0  0
    2.3100   -5.5860    0.0000 H   0  0  0  0  0  0  0  0  0  0  0  0
    2.8291   -5.7251    0.0000 H   0  0  0  0  0  0  0  0  0  0  0  0
    3.6760   -5.9520    0.0000 H   0  0  0  0  0  0  0  0  0  0  0  0
    3.9030   -5.1051    0.0000 H   0  0  0  0  0  0  0  0  0  0  0  0
    2.9030   -3.3730    0.0000 H   0  0  0  0  0  0  0  0  0  0  0  0
    2.0560   -3.1461    0.0000 H   0  0  0  0  0  0  0  0  0  0  0  0
    1.8291   -3.9930    0.0000 H   0  0  0  0  0  0  0  0  0  0  0  0
  1 19  1  0  0  0  0
  2  7  1  0  0  0  0
  2 35  1  0  0  0  0
  3 20  1  0  0  0  0
  3 21  1  0  0  0  0
  4 21  2  0  0  0  0
  5 10  1  0  0  0  0
  5 11  1  0  0  0  0
  5 13  1  0  0  0  0
  6 14  1  0  0  0  0
  6 21  1  0  0  0  0
  6 40  1  0  0  0  0
  7  8  1  0  0  0  0
  7  9  1  0  0  0  0
  7 12  1  0  0  0  0
  8 10  1  0  0  0  0
  8 25  1  0  0  0  0
  8 26  1  0  0  0  0
  9 11  1  0  0  0  0
  9 27  1  0  0  0  0
  9 28  1  0  0  0  0
 10 29  1  0  0  0  0
 10 30  1  0  0  0  0
 11 31  1  0  0  0  0
 11 32  1  0  0  0  0
 12 15  2  0  0  0  0
 12 16  1  0  0  0  0
 13 14  1  0  0  0  0
 13 33  1  0  0  0  0
 13 34  1  0  0  0  0
 14 36  1  0  0  0  0
 14 37  1  0  0  0  0
 15 17  1  0  0  0  0
 15 38  1  0  0  0  0
 16 18  2  0  0  0  0
 16 39  1  0  0  0  0
 17 19  2  0  0  0  0
 17 41  1  0  0  0  0
 18 19  1  0  0  0  0
 18 42  1  0  0  0  0
 20 22  1  0  0  0  0
 20 23  1  0  0  0  0
 20 24  1  0  0  0  0
 22 43  1  0  0  0  0
 22 44  1  0  0  0  0
 22 45  1  0  0  0  0
 23 46  1  0  0  0  0
 23 47  1  0  0  0  0
 23 48  1  0  0  0  0
 24 49  1  0  0  0  0
 24 50  1  0  0  0  0
 24 51  1  0  0  0  0
M  END
> <PUBCHEM_COMPOUND_CID>
90645291

> <PUBCHEM_COMPOUND_CANONICALIZED>
1

> <PUBCHEM_CACTVS_COMPLEXITY>
409

> <PUBCHEM_CACTVS_HBOND_ACCEPTOR>
4

> <PUBCHEM_CACTVS_HBOND_DONOR>
2

> <PUBCHEM_CACTVS_ROTATABLE_BOND>
6

> <PUBCHEM_CACTVS_SUBSKEYS>
AAADceB7MAAEAAAAAAAAAAAAAAAAAAAAAAA8QAAAAAAAAAABAAAAHgIQCAAADEbBmCQyCIPABgCIAiBCGAACAAAgBQAIiIAICokIZiKBkxCccAAm1gGImAeQwOAOhAAAAAAAAAAIAAAAAAAAAAAAAAAAAA==

> <PUBCHEM_IUPAC_OPENEYE_NAME>
tert-butyl N-[2-[4-(4-chlorophenyl)-4-hydroxy-1-piperidyl]ethyl]carbamate

> <PUBCHEM_IUPAC_CAS_NAME>
N-[2-[4-(4-chlorophenyl)-4-hydroxy-1-piperidinyl]ethyl]carbamic acid tert-butyl ester

> <PUBCHEM_IUPAC_NAME_MARKUP>
<I>tert</I>-butyl <I>N</I>-[2-[4-(4-chlorophenyl)-4-hydroxypiperidin-1-yl]ethyl]carbamate

> <PUBCHEM_IUPAC_NAME>
tert-butyl N-[2-[4-(4-chlorophenyl)-4-hydroxypiperidin-1-yl]ethyl]carbamate

> <PUBCHEM_IUPAC_SYSTEMATIC_NAME>
tert-butyl N-[2-[4-(4-chlorophenyl)-4-oxidanyl-piperidin-1-yl]ethyl]carbamate

> <PUBCHEM_IUPAC_TRADITIONAL_NAME>
N-[2-[4-(4-chlorophenyl)-4-hydroxy-piperidino]ethyl]carbamic acid tert-butyl ester

> <PUBCHEM_IUPAC_INCHI>
InChI=1S/C18H27ClN2O3/c1-17(2,3)24-16(22)20-10-13-21-11-8-18(23,9-12-21)14-4-6-15(19)7-5-14/h4-7,23H,8-13H2,1-3H3,(H,20,22)

> <PUBCHEM_IUPAC_INCHIKEY>
BHOHPRFNAQMPCI-UHFFFAOYSA-N

> <PUBCHEM_XLOGP3_AA>
2.7

> <PUBCHEM_EXACT_MASS>
354.1710204

> <PUBCHEM_MOLECULAR_FORMULA>
C18H27ClN2O3

> <PUBCHEM_MOLECULAR_WEIGHT>
354.9

> <PUBCHEM_OPENEYE_CAN_SMILES>
CC(C)(C)OC(=O)NCCN1CCC(CC1)(C2=CC=C(C=C2)Cl)O

> <PUBCHEM_OPENEYE_ISO_SMILES>
CC(C)(C)OC(=O)NCCN1CCC(CC1)(C2=CC=C(C=C2)Cl)O

> <PUBCHEM_CACTVS_TPSA>
61.8

> <PUBCHEM_MONOISOTOPIC_WEIGHT>
354.1710204

> <PUBCHEM_TOTAL_CHARGE>
0

> <PUBCHEM_HEAVY_ATOM_COUNT>
24

> <PUBCHEM_ATOM_DEF_STEREO_COUNT>
0

> <PUBCHEM_ATOM_UDEF_STEREO_COUNT>
0

> <PUBCHEM_BOND_DEF_STEREO_COUNT>
0

> <PUBCHEM_BOND_UDEF_STEREO_COUNT>
0

> <PUBCHEM_ISOTOPIC_ATOM_COUNT>
0

> <PUBCHEM_COMPONENT_COUNT>
1

> <PUBCHEM_CACTVS_TAUTO_COUNT>
-1

> <PUBCHEM_COORDINATE_TYPE>
1
5
255

> <PUBCHEM_BONDANNOTATIONS>
12  15  8
12  16  8
15  17  8
16  18  8
17  19  8
18  19  8

$$$$
