164628531
  -OEChem-09292322432D

 48 50  0     1  0  0  0  0  0999 V2000
   12.3923   -0.0950    0.0000 Cl  0  0  0  0  0  0  0  0  0  0  0  0
   10.6603    2.9050    0.0000 Cl  0  0  0  0  0  0  0  0  0  0  0  0
    8.9282   -0.0950    0.0000 O   0  0  0  0  0  0  0  0  0  0  0  0
    4.5981    0.4050    0.0000 N   0  0  0  0  0  0  0  0  0  0  0  0
    2.8660    1.4050    0.0000 N   0  0  0  0  0  0  0  0  0  0  0  0
    6.3301    0.4050    0.0000 N   0  0  0  0  0  0  0  0  0  0  0  0
    5.4641   -1.0950    0.0000 N   0  0  0  0  0  0  0  0  0  0  0  0
    7.1962   -1.0950    0.0000 N   0  0  0  0  0  0  0  0  0  0  0  0
    6.3301   -2.5950    0.0000 N   0  0  0  0  0  0  0  0  0  0  0  0
    3.7320   -0.0950    0.0000 C   0  0  0  0  0  0  0  0  0  0  0  0
    4.5981    1.4050    0.0000 C   0  0  0  0  0  0  0  0  0  0  0  0
    2.8660    0.4050    0.0000 C   0  0  0  0  0  0  0  0  0  0  0  0
    3.7320    1.9050    0.0000 C   0  0  0  0  0  0  0  0  0  0  0  0
    5.4641   -0.0950    0.0000 C   0  0  0  0  0  0  0  0  0  0  0  0
    2.0000    1.9050    0.0000 C   0  0  0  0  0  0  0  0  0  0  0  0
    8.0622    0.4050    0.0000 C   0  0  3  0  0  0  0  0  0  0  0  0
    7.1962   -0.0950    0.0000 C   0  0  0  0  0  0  0  0  0  0  0  0
    8.0622    1.4050    0.0000 C   0  0  0  0  0  0  0  0  0  0  0  0
    6.3301   -1.5950    0.0000 C   0  0  0  0  0  0  0  0  0  0  0  0
    7.1962    1.9050    0.0000 C   0  0  0  0  0  0  0  0  0  0  0  0
    9.7942    0.4050    0.0000 C   0  0  0  0  0  0  0  0  0  0  0  0
    9.7942    1.4050    0.0000 C   0  0  0  0  0  0  0  0  0  0  0  0
   10.6603   -0.0950    0.0000 C   0  0  0  0  0  0  0  0  0  0  0  0
   11.5263    0.4050    0.0000 C   0  0  0  0  0  0  0  0  0  0  0  0
   10.6603    1.9050    0.0000 C   0  0  0  0  0  0  0  0  0  0  0  0
   11.5263    1.4050    0.0000 C   0  0  0  0  0  0  0  0  0  0  0  0
    3.3335   -0.5699    0.0000 H   0  0  0  0  0  0  0  0  0  0  0  0
    4.1306   -0.5699    0.0000 H   0  0  0  0  0  0  0  0  0  0  0  0
    5.2087    1.2973    0.0000 H   0  0  0  0  0  0  0  0  0  0  0  0
    4.8101    1.9876    0.0000 H   0  0  0  0  0  0  0  0  0  0  0  0
    2.2554    0.5127    0.0000 H   0  0  0  0  0  0  0  0  0  0  0  0
    2.6540   -0.1776    0.0000 H   0  0  0  0  0  0  0  0  0  0  0  0
    4.1306    2.3800    0.0000 H   0  0  0  0  0  0  0  0  0  0  0  0
    3.3335    2.3800    0.0000 H   0  0  0  0  0  0  0  0  0  0  0  0
    2.3100    2.4419    0.0000 H   0  0  0  0  0  0  0  0  0  0  0  0
    1.4631    2.2150    0.0000 H   0  0  0  0  0  0  0  0  0  0  0  0
    1.6900    1.3681    0.0000 H   0  0  0  0  0  0  0  0  0  0  0  0
    8.0622   -0.2150    0.0000 H   0  0  0  0  0  0  0  0  0  0  0  0
    8.6728    1.2973    0.0000 H   0  0  0  0  0  0  0  0  0  0  0  0
    8.2742    1.9876    0.0000 H   0  0  0  0  0  0  0  0  0  0  0  0
    7.5062    2.4419    0.0000 H   0  0  0  0  0  0  0  0  0  0  0  0
    6.6592    2.2150    0.0000 H   0  0  0  0  0  0  0  0  0  0  0  0
    6.8862    1.3681    0.0000 H   0  0  0  0  0  0  0  0  0  0  0  0
    6.8671   -2.9050    0.0000 H   0  0  0  0  0  0  0  0  0  0  0  0
    5.7932   -2.9050    0.0000 H   0  0  0  0  0  0  0  0  0  0  0  0
    9.2573    1.7150    0.0000 H   0  0  0  0  0  0  0  0  0  0  0  0
   10.6603   -0.7150    0.0000 H   0  0  0  0  0  0  0  0  0  0  0  0
   12.0632    1.7150    0.0000 H   0  0  0  0  0  0  0  0  0  0  0  0
  1 24  1  0  0  0  0
  2 25  1  0  0  0  0
  3 16  1  0  0  0  0
  3 21  1  0  0  0  0
  4 10  1  0  0  0  0
  4 11  1  0  0  0  0
  4 14  1  0  0  0  0
  5 12  1  0  0  0  0
  5 13  1  0  0  0  0
  5 15  1  0  0  0  0
  6 14  2  0  0  0  0
  6 17  1  0  0  0  0
  7 14  1  0  0  0  0
  7 19  2  0  0  0  0
  8 17  2  0  0  0  0
  8 19  1  0  0  0  0
  9 19  1  0  0  0  0
  9 44  1  0  0  0  0
  9 45  1  0  0  0  0
 10 12  1  0  0  0  0
 10 27  1  0  0  0  0
 10 28  1  0  0  0  0
 11 13  1  0  0  0  0
 11 29  1  0  0  0  0
 11 30  1  0  0  0  0
 12 31  1  0  0  0  0
 12 32  1  0  0  0  0
 13 33  1  0  0  0  0
 13 34  1  0  0  0  0
 15 35  1  0  0  0  0
 15 36  1  0  0  0  0
 15 37  1  0  0  0  0
 16 17  1  0  0  0  0
 16 18  1  0  0  0  0
 16 38  1  0  0  0  0
 18 20  1  0  0  0  0
 18 39  1  0  0  0  0
 18 40  1  0  0  0  0
 20 41  1  0  0  0  0
 20 42  1  0  0  0  0
 20 43  1  0  0  0  0
 21 22  2  0  0  0  0
 21 23  1  0  0  0  0
 22 25  1  0  0  0  0
 22 46  1  0  0  0  0
 23 24  2  0  0  0  0
 23 47  1  0  0  0  0
 24 26  1  0  0  0  0
 25 26  2  0  0  0  0
 26 48  1  0  0  0  0
M  END
> <PUBCHEM_COMPOUND_CID>
164628531

> <PUBCHEM_COMPOUND_CANONICALIZED>
1

> <PUBCHEM_CACTVS_COMPLEXITY>
430

> <PUBCHEM_CACTVS_HBOND_ACCEPTOR>
7

> <PUBCHEM_CACTVS_HBOND_DONOR>
1

> <PUBCHEM_CACTVS_ROTATABLE_BOND>
5

> <PUBCHEM_CACTVS_SUBSKEYS>
AAADceB7oAAGAAAAAAAAAAAAAAAAAAAAAAA8WIAAAAAAAAABwAAAHgIQAAAACBbhkyYzFodIFACgACJiJAQCiAkgJaABiAA+CoiObiKFuxqXOCCswBOYqAeAQAAAAAAAAQCAAAAAAAACAQAAAAAAAAAAAA==

> <PUBCHEM_IUPAC_OPENEYE_NAME>
4-[1-(3,5-dichlorophenoxy)propyl]-6-(4-methylpiperazin-1-yl)-1,3,5-triazin-2-amine

> <PUBCHEM_IUPAC_CAS_NAME>
4-[1-(3,5-dichlorophenoxy)propyl]-6-(4-methyl-1-piperazinyl)-1,3,5-triazin-2-amine

> <PUBCHEM_IUPAC_NAME_MARKUP>
4-[1-(3,5-dichlorophenoxy)propyl]-6-(4-methylpiperazin-1-yl)-1,3,5-triazin-2-amine

> <PUBCHEM_IUPAC_NAME>
4-[1-(3,5-dichlorophenoxy)propyl]-6-(4-methylpiperazin-1-yl)-1,3,5-triazin-2-amine

> <PUBCHEM_IUPAC_SYSTEMATIC_NAME>
4-[1-[3,5-bis(chloranyl)phenoxy]propyl]-6-(4-methylpiperazin-1-yl)-1,3,5-triazin-2-amine

> <PUBCHEM_IUPAC_TRADITIONAL_NAME>
[4-[1-(3,5-dichlorophenoxy)propyl]-6-(4-methylpiperazino)-s-triazin-2-yl]amine

> <PUBCHEM_IUPAC_INCHI>
InChI=1S/C17H22Cl2N6O/c1-3-14(26-13-9-11(18)8-12(19)10-13)15-21-16(20)23-17(22-15)25-6-4-24(2)5-7-25/h8-10,14H,3-7H2,1-2H3,(H2,20,21,22,23)

> <PUBCHEM_IUPAC_INCHIKEY>
DQZFFYCUWOXXBD-UHFFFAOYSA-N

> <PUBCHEM_XLOGP3_AA>
3.6

> <PUBCHEM_EXACT_MASS>
396.1232147

> <PUBCHEM_MOLECULAR_FORMULA>
C17H22Cl2N6O

> <PUBCHEM_MOLECULAR_WEIGHT>
397.3

> <PUBCHEM_OPENEYE_CAN_SMILES>
CCC(C1=NC(=NC(=N1)N2CCN(CC2)C)N)OC3=CC(=CC(=C3)Cl)Cl

> <PUBCHEM_OPENEYE_ISO_SMILES>
CCC(C1=NC(=NC(=N1)N2CCN(CC2)C)N)OC3=CC(=CC(=C3)Cl)Cl

> <PUBCHEM_CACTVS_TPSA>
80.4

> <PUBCHEM_MONOISOTOPIC_WEIGHT>
396.1232147

> <PUBCHEM_TOTAL_CHARGE>
0

> <PUBCHEM_HEAVY_ATOM_COUNT>
26

> <PUBCHEM_ATOM_DEF_STEREO_COUNT>
0

> <PUBCHEM_ATOM_UDEF_STEREO_COUNT>
1

> <PUBCHEM_BOND_DEF_STEREO_COUNT>
0

> <PUBCHEM_BOND_UDEF_STEREO_COUNT>
0

> <PUBCHEM_ISOTOPIC_ATOM_COUNT>
0

> <PUBCHEM_COMPONENT_COUNT>
1

> <PUBCHEM_CACTVS_TAUTO_COUNT>
-1

> <PUBCHEM_COORDINATE_TYPE>
1
5
255

> <PUBCHEM_BONDANNOTATIONS>
16  18  3
21  22  8
21  23  8
22  25  8
23  24  8
24  26  8
25  26  8
6  14  8
6  17  8
7  14  8
7  19  8
8  17  8
8  19  8

$$$$
