145990482
  -OEChem-09292322062D

 59 64  0     1  0  0  0  0  0999 V2000
   14.9547    0.0689    0.0000 S   0  0  0  0  0  0  0  0  0  0  0  0
    4.6119   -1.8063    0.0000 O   0  0  0  0  0  0  0  0  0  0  0  0
    5.8126    1.4925    0.0000 O   0  0  0  0  0  0  0  0  0  0  0  0
    5.4687   -0.2503    0.0000 N   0  0  0  0  0  0  0  0  0  0  0  0
    9.8199    0.0092    0.0000 N   0  0  0  0  0  0  0  0  0  0  0  0
   11.6993   -0.6748    0.0000 N   0  0  0  0  0  0  0  0  0  0  0  0
   13.4423    0.6193    0.0000 N   0  0  0  0  0  0  0  0  0  0  0  0
    3.8602   -0.1969    0.0000 C   0  0  2  0  0  0  0  0  0  0  0  0
    4.2022    0.7428    0.0000 C   0  0  1  0  0  0  0  0  0  0  0  0
    2.4875    0.3951    0.0000 C   0  0  1  0  0  0  0  0  0  0  0  0
    2.2286    1.3611    0.0000 C   0  0  2  0  0  0  0  0  0  0  0  0
    2.9652    2.3437    0.0000 C   0  0  0  0  0  0  0  0  0  0  0  0
    1.0885   -0.1137    0.0000 C   0  0  0  0  0  0  0  0  0  0  0  0
    0.8297    0.8522    0.0000 C   0  0  0  0  0  0  0  0  0  0  0  0
    4.6451   -0.8069    0.0000 C   0  0  0  0  0  0  0  0  0  0  0  0
    5.1956    0.7055    0.0000 C   0  0  0  0  0  0  0  0  0  0  0  0
    6.4084   -0.5923    0.0000 C   0  0  0  0  0  0  0  0  0  0  0  0
    7.1745    0.0505    0.0000 C   0  0  0  0  0  0  0  0  0  0  0  0
    8.1142   -0.2915    0.0000 C   0  0  0  0  0  0  0  0  0  0  0  0
    8.8802    0.3512    0.0000 C   0  0  0  0  0  0  0  0  0  0  0  0
    9.9936   -0.9756    0.0000 C   0  0  0  0  0  0  0  0  0  0  0  0
   10.5860    0.6520    0.0000 C   0  0  0  0  0  0  0  0  0  0  0  0
   10.9332   -1.3176    0.0000 C   0  0  0  0  0  0  0  0  0  0  0  0
   11.5256    0.3100    0.0000 C   0  0  0  0  0  0  0  0  0  0  0  0
   12.6390   -1.0168    0.0000 C   0  0  0  0  0  0  0  0  0  0  0  0
   13.4050   -0.3740    0.0000 C   0  0  0  0  0  0  0  0  0  0  0  0
   12.8126   -2.0016    0.0000 C   0  0  0  0  0  0  0  0  0  0  0  0
   14.3447   -0.7161    0.0000 C   0  0  0  0  0  0  0  0  0  0  0  0
   13.7523   -2.3437    0.0000 C   0  0  0  0  0  0  0  0  0  0  0  0
   14.5184   -1.7009    0.0000 C   0  0  0  0  0  0  0  0  0  0  0  0
   14.3981    0.8925    0.0000 C   0  0  0  0  0  0  0  0  0  0  0  0
    3.5694   -0.9956    0.0000 H   0  0  0  0  0  0  0  0  0  0  0  0
    4.4929    1.5415    0.0000 H   0  0  0  0  0  0  0  0  0  0  0  0
    2.7074   -0.4259    0.0000 H   0  0  0  0  0  0  0  0  0  0  0  0
    2.0086    2.1821    0.0000 H   0  0  0  0  0  0  0  0  0  0  0  0
    2.6474    2.8760    0.0000 H   0  0  0  0  0  0  0  0  0  0  0  0
    3.5784    2.4356    0.0000 H   0  0  0  0  0  0  0  0  0  0  0  0
    0.8022   -0.6636    0.0000 H   0  0  0  0  0  0  0  0  0  0  0  0
    0.2798    1.1386    0.0000 H   0  0  0  0  0  0  0  0  0  0  0  0
    6.8834   -0.9908    0.0000 H   0  0  0  0  0  0  0  0  0  0  0  0
    6.0984   -1.1292    0.0000 H   0  0  0  0  0  0  0  0  0  0  0  0
    6.6995    0.4490    0.0000 H   0  0  0  0  0  0  0  0  0  0  0  0
    7.4845    0.5874    0.0000 H   0  0  0  0  0  0  0  0  0  0  0  0
    8.5891   -0.6901    0.0000 H   0  0  0  0  0  0  0  0  0  0  0  0
    7.8042   -0.8285    0.0000 H   0  0  0  0  0  0  0  0  0  0  0  0
    8.4053    0.7498    0.0000 H   0  0  0  0  0  0  0  0  0  0  0  0
    9.1902    0.8882    0.0000 H   0  0  0  0  0  0  0  0  0  0  0  0
    9.8859   -1.5862    0.0000 H   0  0  0  0  0  0  0  0  0  0  0  0
    9.3736   -0.9756    0.0000 H   0  0  0  0  0  0  0  0  0  0  0  0
   10.1110    1.0505    0.0000 H   0  0  0  0  0  0  0  0  0  0  0  0
   10.8960    1.1890    0.0000 H   0  0  0  0  0  0  0  0  0  0  0  0
   11.4082   -1.7161    0.0000 H   0  0  0  0  0  0  0  0  0  0  0  0
   10.6232   -1.8545    0.0000 H   0  0  0  0  0  0  0  0  0  0  0  0
   11.6333    0.9206    0.0000 H   0  0  0  0  0  0  0  0  0  0  0  0
   12.1456    0.3100    0.0000 H   0  0  0  0  0  0  0  0  0  0  0  0
   12.3377   -2.4002    0.0000 H   0  0  0  0  0  0  0  0  0  0  0  0
   13.8600   -2.9542    0.0000 H   0  0  0  0  0  0  0  0  0  0  0  0
   15.1010   -1.9129    0.0000 H   0  0  0  0  0  0  0  0  0  0  0  0
   14.6102    1.4751    0.0000 H   0  0  0  0  0  0  0  0  0  0  0  0
  1 28  1  0  0  0  0
  1 31  1  0  0  0  0
  2 15  2  0  0  0  0
  3 16  2  0  0  0  0
  4 15  1  0  0  0  0
  4 16  1  0  0  0  0
  4 17  1  0  0  0  0
  5 20  1  0  0  0  0
  5 21  1  0  0  0  0
  5 22  1  0  0  0  0
  6 23  1  0  0  0  0
  6 24  1  0  0  0  0
  6 25  1  0  0  0  0
  7 26  1  0  0  0  0
  7 31  2  0  0  0  0
  8  9  1  0  0  0  0
  8 10  1  0  0  0  0
  8 15  1  0  0  0  0
  8 32  1  6  0  0  0
  9 11  1  0  0  0  0
  9 16  1  0  0  0  0
  9 33  1  6  0  0  0
 10 12  1  0  0  0  0
 10 13  1  0  0  0  0
 10 34  1  1  0  0  0
 11 12  1  0  0  0  0
 11 14  1  0  0  0  0
 11 35  1  6  0  0  0
 12 36  1  0  0  0  0
 12 37  1  0  0  0  0
 13 14  2  0  0  0  0
 13 38  1  0  0  0  0
 14 39  1  0  0  0  0
 17 18  1  0  0  0  0
 17 40  1  0  0  0  0
 17 41  1  0  0  0  0
 18 19  1  0  0  0  0
 18 42  1  0  0  0  0
 18 43  1  0  0  0  0
 19 20  1  0  0  0  0
 19 44  1  0  0  0  0
 19 45  1  0  0  0  0
 20 46  1  0  0  0  0
 20 47  1  0  0  0  0
 21 23  1  0  0  0  0
 21 48  1  0  0  0  0
 21 49  1  0  0  0  0
 22 24  1  0  0  0  0
 22 50  1  0  0  0  0
 22 51  1  0  0  0  0
 23 52  1  0  0  0  0
 23 53  1  0  0  0  0
 24 54  1  0  0  0  0
 24 55  1  0  0  0  0
 25 26  2  0  0  0  0
 25 27  1  0  0  0  0
 26 28  1  0  0  0  0
 27 29  2  0  0  0  0
 27 56  1  0  0  0  0
 28 30  2  0  0  0  0
 29 30  1  0  0  0  0
 29 57  1  0  0  0  0
 30 58  1  0  0  0  0
 31 59  1  0  0  0  0
M  END
> <PUBCHEM_COMPOUND_CID>
145990482

> <PUBCHEM_COMPOUND_CANONICALIZED>
1

> <PUBCHEM_CACTVS_COMPLEXITY>
722

> <PUBCHEM_CACTVS_HBOND_ACCEPTOR>
6

> <PUBCHEM_CACTVS_HBOND_DONOR>
0

> <PUBCHEM_CACTVS_ROTATABLE_BOND>
6

> <PUBCHEM_CACTVS_SUBSKEYS>
AAADceB7sABAAAAAAAAAAAAAAAAAAeLECAA8QIAAAAAWAFgB8AAAHgQAAAAADQjB1gS0wbMIEAisASVzVACD8KBxGjhI2D0odJgIYLLgkZGUIAxghiDIyAcdiACOgAAAACAAASAAAAAAQAACQQAACAAAAA==

> <PUBCHEM_IUPAC_OPENEYE_NAME>
(1S,2S,6R,7R)-4-[4-[4-(1,3-benzothiazol-4-yl)piperazin-1-yl]butyl]-4-azatricyclo[5.2.1.02,6]dec-8-ene-3,5-dione

> <PUBCHEM_IUPAC_CAS_NAME>
(1S,2S,6R,7R)-4-[4-[4-(1,3-benzothiazol-4-yl)-1-piperazinyl]butyl]-4-azatricyclo[5.2.1.02,6]dec-8-ene-3,5-dione

> <PUBCHEM_IUPAC_NAME_MARKUP>
(1<I>S</I>,2<I>S</I>,6<I>R</I>,7<I>R</I>)-4-[4-[4-(1,3-benzothiazol-4-yl)piperazin-1-yl]butyl]-4-azatricyclo[5.2.1.0<SUP>2,6</SUP>]dec-8-ene-3,5-dione

> <PUBCHEM_IUPAC_NAME>
(1S,2S,6R,7R)-4-[4-[4-(1,3-benzothiazol-4-yl)piperazin-1-yl]butyl]-4-azatricyclo[5.2.1.02,6]dec-8-ene-3,5-dione

> <PUBCHEM_IUPAC_SYSTEMATIC_NAME>
(1S,2S,6R,7R)-4-[4-[4-(1,3-benzothiazol-4-yl)piperazin-1-yl]butyl]-4-azatricyclo[5.2.1.02,6]dec-8-ene-3,5-dione

> <PUBCHEM_IUPAC_TRADITIONAL_NAME>
(1S,2S,6R,7R)-4-[4-[4-(1,3-benzothiazol-4-yl)piperazino]butyl]-4-azatricyclo[5.2.1.02,6]dec-8-ene-3,5-quinone

> <PUBCHEM_IUPAC_INCHI>
InChI=1S/C24H28N4O2S/c29-23-20-16-6-7-17(14-16)21(20)24(30)28(23)9-2-1-8-26-10-12-27(13-11-26)18-4-3-5-19-22(18)25-15-31-19/h3-7,15-17,20-21H,1-2,8-14H2/t16-,17+,20+,21-

> <PUBCHEM_IUPAC_INCHIKEY>
JPIZEYQLWAJSNQ-BTYSMDAFSA-N

> <PUBCHEM_XLOGP3_AA>
3.1

> <PUBCHEM_EXACT_MASS>
436.19329732

> <PUBCHEM_MOLECULAR_FORMULA>
C24H28N4O2S

> <PUBCHEM_MOLECULAR_WEIGHT>
436.6

> <PUBCHEM_OPENEYE_CAN_SMILES>
C1CN(CCN1CCCCN2C(=O)C3C4CC(C3C2=O)C=C4)C5=C6C(=CC=C5)SC=N6

> <PUBCHEM_OPENEYE_ISO_SMILES>
C1CN(CCN1CCCCN2C(=O)[C@@H]3[C@@H]4C[C@H]([C@@H]3C2=O)C=C4)C5=C6C(=CC=C5)SC=N6

> <PUBCHEM_CACTVS_TPSA>
85

> <PUBCHEM_MONOISOTOPIC_WEIGHT>
436.19329732

> <PUBCHEM_TOTAL_CHARGE>
0

> <PUBCHEM_HEAVY_ATOM_COUNT>
31

> <PUBCHEM_ATOM_DEF_STEREO_COUNT>
4

> <PUBCHEM_ATOM_UDEF_STEREO_COUNT>
0

> <PUBCHEM_BOND_DEF_STEREO_COUNT>
0

> <PUBCHEM_BOND_UDEF_STEREO_COUNT>
0

> <PUBCHEM_ISOTOPIC_ATOM_COUNT>
0

> <PUBCHEM_COMPONENT_COUNT>
1

> <PUBCHEM_CACTVS_TAUTO_COUNT>
-1

> <PUBCHEM_COORDINATE_TYPE>
1
5
255

> <PUBCHEM_BONDANNOTATIONS>
1  28  8
1  31  8
10  34  5
11  35  6
25  26  8
25  27  8
26  28  8
27  29  8
28  30  8
29  30  8
7  26  8
7  31  8
8  32  6
9  33  6

$$$$
