11591601
  -OEChem-09292322492D

 69 74  0     1  0  0  0  0  0999 V2000
    5.1114    1.6698    0.0000 S   0  0  0  0  0  0  0  0  0  0  0  0
    2.0000   -5.5739    0.0000 O   0  0  0  0  0  0  0  0  0  0  0  0
    5.1114   -1.7943    0.0000 N   0  0  3  0  0  0  0  0  0  0  0  0
    2.4051   -6.4817    0.0000 N   0  0  0  0  0  0  0  0  0  0  0  0
    6.6059    2.6403    0.0000 N   0  0  0  0  0  0  0  0  0  0  0  0
    5.2046    3.4493    0.0000 N   0  0  0  0  0  0  0  0  0  0  0  0
    5.9478    4.1185    0.0000 N   0  0  0  0  0  0  0  0  0  0  0  0
    8.8702    6.4606    0.0000 N   0  0  0  0  0  0  0  0  0  0  0  0
    5.6649   -2.6040    0.0000 C   0  0  0  0  0  0  0  0  0  0  0  0
    4.1334   -1.7197    0.0000 C   0  0  0  0  0  0  0  0  0  0  0  0
    5.3796   -3.5423    0.0000 C   0  0  0  0  0  0  0  0  0  0  0  0
    3.4634   -2.4360    0.0000 C   0  0  0  0  0  0  0  0  0  0  0  0
    4.4691   -3.9068    0.0000 C   0  0  0  0  0  0  0  0  0  0  0  0
    3.6030   -3.4068    0.0000 C   0  0  0  0  0  0  0  0  0  0  0  0
    5.6114   -0.9283    0.0000 C   0  0  0  0  0  0  0  0  0  0  0  0
    4.4691   -4.9068    0.0000 C   0  0  0  0  0  0  0  0  0  0  0  0
    5.1114   -0.0623    0.0000 C   0  0  0  0  0  0  0  0  0  0  0  0
    2.7370   -3.9068    0.0000 C   0  0  0  0  0  0  0  0  0  0  0  0
    3.6030   -5.4068    0.0000 C   0  0  0  0  0  0  0  0  0  0  0  0
    2.7370   -4.9068    0.0000 C   0  0  0  0  0  0  0  0  0  0  0  0
    5.6114    0.8037    0.0000 C   0  0  0  0  0  0  0  0  0  0  0  0
    3.3938   -6.3786    0.0000 C   0  0  0  0  0  0  0  0  0  0  0  0
    4.0617   -7.1229    0.0000 C   0  0  0  0  0  0  0  0  0  0  0  0
    3.7510   -8.0734    0.0000 C   0  0  0  0  0  0  0  0  0  0  0  0
    5.6114    2.5358    0.0000 C   0  0  0  0  0  0  0  0  0  0  0  0
    6.8138    3.6185    0.0000 C   0  0  0  0  0  0  0  0  0  0  0  0
    7.7273    4.0252    0.0000 C   0  0  0  0  0  0  0  0  0  0  0  0
    7.8318    5.0197    0.0000 C   0  0  0  0  0  0  0  0  0  0  0  0
    7.2750    1.8972    0.0000 C   0  0  0  0  0  0  0  0  0  0  0  0
    8.7454    5.4265    0.0000 C   0  0  0  0  0  0  0  0  0  0  0  0
    8.5363    3.4374    0.0000 C   0  0  0  0  0  0  0  0  0  0  0  0
    6.9798    5.6189    0.0000 C   0  0  0  0  0  0  0  0  0  0  0  0
    9.5544    4.8387    0.0000 C   0  0  0  0  0  0  0  0  0  0  0  0
    9.4499    3.8442    0.0000 C   0  0  0  0  0  0  0  0  0  0  0  0
    7.0807    6.6556    0.0000 C   0  0  0  0  0  0  0  0  0  0  0  0
    8.0323    7.0793    0.0000 C   0  0  0  0  0  0  0  0  0  0  0  0
    8.1407    8.0734    0.0000 C   0  0  0  0  0  0  0  0  0  0  0  0
    6.2028   -2.9123    0.0000 H   0  0  0  0  0  0  0  0  0  0  0  0
    6.0856   -2.1485    0.0000 H   0  0  0  0  0  0  0  0  0  0  0  0
    4.3175   -1.1277    0.0000 H   0  0  0  0  0  0  0  0  0  0  0  0
    3.5974   -1.4080    0.0000 H   0  0  0  0  0  0  0  0  0  0  0  0
    5.4756   -4.1549    0.0000 H   0  0  0  0  0  0  0  0  0  0  0  0
    5.9981   -3.5856    0.0000 H   0  0  0  0  0  0  0  0  0  0  0  0
    3.1167   -1.9220    0.0000 H   0  0  0  0  0  0  0  0  0  0  0  0
    2.8849   -2.6591    0.0000 H   0  0  0  0  0  0  0  0  0  0  0  0
    6.0863   -1.3268    0.0000 H   0  0  0  0  0  0  0  0  0  0  0  0
    6.0863   -0.5298    0.0000 H   0  0  0  0  0  0  0  0  0  0  0  0
    5.0060   -5.2168    0.0000 H   0  0  0  0  0  0  0  0  0  0  0  0
    4.6364    0.3362    0.0000 H   0  0  0  0  0  0  0  0  0  0  0  0
    4.6364   -0.4608    0.0000 H   0  0  0  0  0  0  0  0  0  0  0  0
    2.2001   -3.5968    0.0000 H   0  0  0  0  0  0  0  0  0  0  0  0
    6.0863    0.4052    0.0000 H   0  0  0  0  0  0  0  0  0  0  0  0
    6.0863    1.2023    0.0000 H   0  0  0  0  0  0  0  0  0  0  0  0
    4.6086   -7.4149    0.0000 H   0  0  0  0  0  0  0  0  0  0  0  0
    4.4442   -6.6350    0.0000 H   0  0  0  0  0  0  0  0  0  0  0  0
    3.1617   -7.8808    0.0000 H   0  0  0  0  0  0  0  0  0  0  0  0
    3.5584   -8.6628    0.0000 H   0  0  0  0  0  0  0  0  0  0  0  0
    4.3403   -8.2660    0.0000 H   0  0  0  0  0  0  0  0  0  0  0  0
    6.8142    1.4823    0.0000 H   0  0  0  0  0  0  0  0  0  0  0  0
    7.6899    1.4364    0.0000 H   0  0  0  0  0  0  0  0  0  0  0  0
    7.7358    2.3120    0.0000 H   0  0  0  0  0  0  0  0  0  0  0  0
    8.4715    2.8208    0.0000 H   0  0  0  0  0  0  0  0  0  0  0  0
    6.4164    5.3602    0.0000 H   0  0  0  0  0  0  0  0  0  0  0  0
   10.1208    5.0909    0.0000 H   0  0  0  0  0  0  0  0  0  0  0  0
    9.9515    3.4797    0.0000 H   0  0  0  0  0  0  0  0  0  0  0  0
    6.5777    7.0181    0.0000 H   0  0  0  0  0  0  0  0  0  0  0  0
    8.7570    8.0062    0.0000 H   0  0  0  0  0  0  0  0  0  0  0  0
    8.2078    8.6898    0.0000 H   0  0  0  0  0  0  0  0  0  0  0  0
    7.5243    8.1406    0.0000 H   0  0  0  0  0  0  0  0  0  0  0  0
  1 21  1  0  0  0  0
  1 25  1  0  0  0  0
  2  4  1  0  0  0  0
  2 20  1  0  0  0  0
  3  9  1  0  0  0  0
  3 10  1  0  0  0  0
  3 15  1  0  0  0  0
  4 22  2  0  0  0  0
  5 25  1  0  0  0  0
  5 26  1  0  0  0  0
  5 29  1  0  0  0  0
  6  7  1  0  0  0  0
  6 25  2  0  0  0  0
  7 26  2  0  0  0  0
  8 30  1  0  0  0  0
  8 36  2  0  0  0  0
  9 11  1  0  0  0  0
  9 38  1  0  0  0  0
  9 39  1  0  0  0  0
 10 12  1  0  0  0  0
 10 40  1  0  0  0  0
 10 41  1  0  0  0  0
 11 13  1  0  0  0  0
 11 42  1  0  0  0  0
 11 43  1  0  0  0  0
 12 14  1  0  0  0  0
 12 44  1  0  0  0  0
 12 45  1  0  0  0  0
 13 14  1  0  0  0  0
 13 16  2  0  0  0  0
 14 18  2  0  0  0  0
 15 17  1  0  0  0  0
 15 46  1  0  0  0  0
 15 47  1  0  0  0  0
 16 19  1  0  0  0  0
 16 48  1  0  0  0  0
 17 21  1  0  0  0  0
 17 49  1  0  0  0  0
 17 50  1  0  0  0  0
 18 20  1  0  0  0  0
 18 51  1  0  0  0  0
 19 20  2  0  0  0  0
 19 22  1  0  0  0  0
 21 52  1  0  0  0  0
 21 53  1  0  0  0  0
 22 23  1  0  0  0  0
 23 24  1  0  0  0  0
 23 54  1  0  0  0  0
 23 55  1  0  0  0  0
 24 56  1  0  0  0  0
 24 57  1  0  0  0  0
 24 58  1  0  0  0  0
 26 27  1  0  0  0  0
 27 28  2  0  0  0  0
 27 31  1  0  0  0  0
 28 30  1  0  0  0  0
 28 32  1  0  0  0  0
 29 59  1  0  0  0  0
 29 60  1  0  0  0  0
 29 61  1  0  0  0  0
 30 33  2  0  0  0  0
 31 34  2  0  0  0  0
 31 62  1  0  0  0  0
 32 35  2  0  0  0  0
 32 63  1  0  0  0  0
 33 34  1  0  0  0  0
 33 64  1  0  0  0  0
 34 65  1  0  0  0  0
 35 36  1  0  0  0  0
 35 66  1  0  0  0  0
 36 37  1  0  0  0  0
 37 67  1  0  0  0  0
 37 68  1  0  0  0  0
 37 69  1  0  0  0  0
M  END
> <PUBCHEM_COMPOUND_CID>
11591601

> <PUBCHEM_COMPOUND_CANONICALIZED>
1

> <PUBCHEM_CACTVS_COMPLEXITY>
745

> <PUBCHEM_CACTVS_HBOND_ACCEPTOR>
7

> <PUBCHEM_CACTVS_HBOND_DONOR>
0

> <PUBCHEM_CACTVS_ROTATABLE_BOND>
7

> <PUBCHEM_CACTVS_SUBSKEYS>
AAADcfB7oABAAAAAAAAAAAAAAAAAAWLAAAA8YIAABYAAAFix/gAAHgQMAAAADAzF3wSz1vccEAirA6ZyZgCS0CtlIrA92CE+bNqILvrgnZOEMYhmyBvIyceY2fKO4AADQAAaAADAAAaAADQAAAAAAAAAAA==

> <PUBCHEM_IUPAC_OPENEYE_NAME>
3-ethyl-7-[3-[[4-methyl-5-(2-methyl-5-quinolyl)-1,2,4-triazol-3-yl]sulfanyl]propyl]-5,6,8,9-tetrahydroisoxazolo[5,4-h][3]benzazepine

> <PUBCHEM_IUPAC_CAS_NAME>
3-ethyl-7-[3-[[4-methyl-5-(2-methyl-5-quinolinyl)-1,2,4-triazol-3-yl]thio]propyl]-5,6,8,9-tetrahydroisoxazolo[5,4-h][3]benzazepine

> <PUBCHEM_IUPAC_NAME_MARKUP>
3-ethyl-7-[3-[[4-methyl-5-(2-methylquinolin-5-yl)-1,2,4-triazol-3-yl]sulfanyl]propyl]-5,6,8,9-tetrahydro-[1,2]oxazolo[5,4-h][3]benzazepine

> <PUBCHEM_IUPAC_NAME>
3-ethyl-7-[3-[[4-methyl-5-(2-methylquinolin-5-yl)-1,2,4-triazol-3-yl]sulfanyl]propyl]-5,6,8,9-tetrahydro-[1,2]oxazolo[5,4-h][3]benzazepine

> <PUBCHEM_IUPAC_SYSTEMATIC_NAME>
3-ethyl-7-[3-[[4-methyl-5-(2-methylquinolin-5-yl)-1,2,4-triazol-3-yl]sulfanyl]propyl]-5,6,8,9-tetrahydro-[1,2]oxazolo[5,4-h][3]benzazepine

> <PUBCHEM_IUPAC_TRADITIONAL_NAME>
3-ethyl-7-[3-[[4-methyl-5-(2-methyl-5-quinolyl)-1,2,4-triazol-3-yl]thio]propyl]-5,6,8,9-tetrahydroisoxazolo[5,4-h][3]benzazepine

> <PUBCHEM_IUPAC_INCHI>
InChI=1S/C29H32N6OS/c1-4-25-24-17-20-11-14-35(15-12-21(20)18-27(24)36-33-25)13-6-16-37-29-32-31-28(34(29)3)23-7-5-8-26-22(23)10-9-19(2)30-26/h5,7-10,17-18H,4,6,11-16H2,1-3H3

> <PUBCHEM_IUPAC_INCHIKEY>
RTMHXVRCXRAHLV-UHFFFAOYSA-N

> <PUBCHEM_XLOGP3_AA>
5.6

> <PUBCHEM_EXACT_MASS>
512.23583084

> <PUBCHEM_MOLECULAR_FORMULA>
C29H32N6OS

> <PUBCHEM_MOLECULAR_WEIGHT>
512.7

> <PUBCHEM_OPENEYE_CAN_SMILES>
CCC1=NOC2=C1C=C3CCN(CCC3=C2)CCCSC4=NN=C(N4C)C5=C6C=CC(=NC6=CC=C5)C

> <PUBCHEM_OPENEYE_ISO_SMILES>
CCC1=NOC2=C1C=C3CCN(CCC3=C2)CCCSC4=NN=C(N4C)C5=C6C=CC(=NC6=CC=C5)C

> <PUBCHEM_CACTVS_TPSA>
98.2

> <PUBCHEM_MONOISOTOPIC_WEIGHT>
512.23583084

> <PUBCHEM_TOTAL_CHARGE>
0

> <PUBCHEM_HEAVY_ATOM_COUNT>
37

> <PUBCHEM_ATOM_DEF_STEREO_COUNT>
0

> <PUBCHEM_ATOM_UDEF_STEREO_COUNT>
0

> <PUBCHEM_BOND_DEF_STEREO_COUNT>
0

> <PUBCHEM_BOND_UDEF_STEREO_COUNT>
0

> <PUBCHEM_ISOTOPIC_ATOM_COUNT>
0

> <PUBCHEM_COMPONENT_COUNT>
1

> <PUBCHEM_CACTVS_TAUTO_COUNT>
-1

> <PUBCHEM_COORDINATE_TYPE>
1
5
255

> <PUBCHEM_BONDANNOTATIONS>
13  14  8
13  16  8
14  18  8
16  19  8
18  20  8
19  20  8
19  22  8
2  20  8
2  4  8
27  28  8
27  31  8
28  30  8
28  32  8
30  33  8
31  34  8
32  35  8
33  34  8
35  36  8
4  22  8
5  25  8
5  26  8
6  25  8
6  7  8
7  26  8
8  30  8
8  36  8

$$$$
