45269860
  -OEChem-09292322282D

 47 50  0     0  0  0  0  0  0999 V2000
   11.7278   -2.0647    0.0000 Cl  0  0  0  0  0  0  0  0  0  0  0  0
    8.0406   -1.5614    0.0000 O   0  0  0  0  0  0  0  0  0  0  0  0
    5.2619    1.0647    0.0000 N   0  0  0  0  0  0  0  0  0  0  0  0
    7.7619    0.1987    0.0000 N   0  0  0  0  0  0  0  0  0  0  0  0
    9.3007   -0.3013    0.0000 N   0  0  0  0  0  0  0  0  0  0  0  0
    6.2619    1.0647    0.0000 C   0  0  0  0  0  0  0  0  0  0  0  0
    6.7619    0.1987    0.0000 C   0  0  0  0  0  0  0  0  0  0  0  0
    8.3497    1.0077    0.0000 C   0  0  0  0  0  0  0  0  0  0  0  0
    4.6783    0.2600    0.0000 C   0  0  0  0  0  0  0  0  0  0  0  0
    4.6783    1.8694    0.0000 C   0  0  0  0  0  0  0  0  0  0  0  0
    9.3007    0.6987    0.0000 C   0  0  0  0  0  0  0  0  0  0  0  0
    3.7320    0.5647    0.0000 C   0  0  0  0  0  0  0  0  0  0  0  0
    3.7320    1.5647    0.0000 C   0  0  0  0  0  0  0  0  0  0  0  0
    8.3497   -0.6104    0.0000 C   0  0  0  0  0  0  0  0  0  0  0  0
   10.1097   -0.8891    0.0000 C   0  0  0  0  0  0  0  0  0  0  0  0
    2.8660    0.0647    0.0000 C   0  0  0  0  0  0  0  0  0  0  0  0
    2.8660    2.0647    0.0000 C   0  0  0  0  0  0  0  0  0  0  0  0
   11.0233   -0.4824    0.0000 C   0  0  0  0  0  0  0  0  0  0  0  0
    2.0000    0.5647    0.0000 C   0  0  0  0  0  0  0  0  0  0  0  0
    2.0000    1.5647    0.0000 C   0  0  0  0  0  0  0  0  0  0  0  0
   11.8323   -1.0702    0.0000 C   0  0  0  0  0  0  0  0  0  0  0  0
   11.1278    0.5121    0.0000 C   0  0  0  0  0  0  0  0  0  0  0  0
   12.7458   -0.6634    0.0000 C   0  0  0  0  0  0  0  0  0  0  0  0
   12.0414    0.9189    0.0000 C   0  0  0  0  0  0  0  0  0  0  0  0
   12.8504    0.3311    0.0000 C   0  0  0  0  0  0  0  0  0  0  0  0
    6.8445    1.2767    0.0000 H   0  0  0  0  0  0  0  0  0  0  0  0
    6.1542    1.6753    0.0000 H   0  0  0  0  0  0  0  0  0  0  0  0
    6.1793   -0.0134    0.0000 H   0  0  0  0  0  0  0  0  0  0  0  0
    6.8695   -0.4119    0.0000 H   0  0  0  0  0  0  0  0  0  0  0  0
    8.6018    1.5741    0.0000 H   0  0  0  0  0  0  0  0  0  0  0  0
    7.8127    1.3177    0.0000 H   0  0  0  0  0  0  0  0  0  0  0  0
    4.4272   -0.3069    0.0000 H   0  0  0  0  0  0  0  0  0  0  0  0
    5.2156   -0.0493    0.0000 H   0  0  0  0  0  0  0  0  0  0  0  0
    5.2156    2.1787    0.0000 H   0  0  0  0  0  0  0  0  0  0  0  0
    4.4272    2.4363    0.0000 H   0  0  0  0  0  0  0  0  0  0  0  0
    9.9173    0.6339    0.0000 H   0  0  0  0  0  0  0  0  0  0  0  0
    9.4296    1.3051    0.0000 H   0  0  0  0  0  0  0  0  0  0  0  0
    9.6638   -1.3198    0.0000 H   0  0  0  0  0  0  0  0  0  0  0  0
   10.4564   -1.4031    0.0000 H   0  0  0  0  0  0  0  0  0  0  0  0
    2.8660   -0.5553    0.0000 H   0  0  0  0  0  0  0  0  0  0  0  0
    2.8660    2.6847    0.0000 H   0  0  0  0  0  0  0  0  0  0  0  0
    1.4631    0.2547    0.0000 H   0  0  0  0  0  0  0  0  0  0  0  0
    1.4631    1.8747    0.0000 H   0  0  0  0  0  0  0  0  0  0  0  0
   10.6262    0.8766    0.0000 H   0  0  0  0  0  0  0  0  0  0  0  0
   13.2474   -1.0279    0.0000 H   0  0  0  0  0  0  0  0  0  0  0  0
   12.1062    1.5355    0.0000 H   0  0  0  0  0  0  0  0  0  0  0  0
   13.4168    0.5833    0.0000 H   0  0  0  0  0  0  0  0  0  0  0  0
  1 21  1  0  0  0  0
  2 14  2  0  0  0  0
  3  6  1  0  0  0  0
  3  9  1  0  0  0  0
  3 10  1  0  0  0  0
  4  7  1  0  0  0  0
  4  8  1  0  0  0  0
  4 14  1  0  0  0  0
  5 11  1  0  0  0  0
  5 14  1  0  0  0  0
  5 15  1  0  0  0  0
  6  7  1  0  0  0  0
  6 26  1  0  0  0  0
  6 27  1  0  0  0  0
  7 28  1  0  0  0  0
  7 29  1  0  0  0  0
  8 11  1  0  0  0  0
  8 30  1  0  0  0  0
  8 31  1  0  0  0  0
  9 12  1  0  0  0  0
  9 32  1  0  0  0  0
  9 33  1  0  0  0  0
 10 13  1  0  0  0  0
 10 34  1  0  0  0  0
 10 35  1  0  0  0  0
 11 36  1  0  0  0  0
 11 37  1  0  0  0  0
 12 13  1  0  0  0  0
 12 16  2  0  0  0  0
 13 17  2  0  0  0  0
 15 18  1  0  0  0  0
 15 38  1  0  0  0  0
 15 39  1  0  0  0  0
 16 19  1  0  0  0  0
 16 40  1  0  0  0  0
 17 20  1  0  0  0  0
 17 41  1  0  0  0  0
 18 21  1  0  0  0  0
 18 22  2  0  0  0  0
 19 20  2  0  0  0  0
 19 42  1  0  0  0  0
 20 43  1  0  0  0  0
 21 23  2  0  0  0  0
 22 24  1  0  0  0  0
 22 44  1  0  0  0  0
 23 25  1  0  0  0  0
 23 45  1  0  0  0  0
 24 25  2  0  0  0  0
 24 46  1  0  0  0  0
 25 47  1  0  0  0  0
M  END
> <PUBCHEM_COMPOUND_CID>
45269860

> <PUBCHEM_COMPOUND_CANONICALIZED>
1

> <PUBCHEM_CACTVS_COMPLEXITY>
460

> <PUBCHEM_CACTVS_HBOND_ACCEPTOR>
2

> <PUBCHEM_CACTVS_HBOND_DONOR>
0

> <PUBCHEM_CACTVS_ROTATABLE_BOND>
5

> <PUBCHEM_CACTVS_SUBSKEYS>
AAADceB7IAAEAAAAAAAAAAAAAAAAAWLAAAAwYAAAAAAAAFgBQAAAHgIAAAAADALBGCQxAIMAAACIAiBCEACCAAAgBQAIiAAIBoiIYCKBkxGUIAhohgKIiAcQgIAOgAAAAAARAAAAAAAAACIAAAAAAAAAAA==

> <PUBCHEM_IUPAC_OPENEYE_NAME>
1-[(2-chlorophenyl)methyl]-3-(2-isoindolin-2-ylethyl)imidazolidin-2-one

> <PUBCHEM_IUPAC_CAS_NAME>
1-[(2-chlorophenyl)methyl]-3-[2-(1,3-dihydroisoindol-2-yl)ethyl]-2-imidazolidinone

> <PUBCHEM_IUPAC_NAME_MARKUP>
1-[(2-chlorophenyl)methyl]-3-[2-(1,3-dihydroisoindol-2-yl)ethyl]imidazolidin-2-one

> <PUBCHEM_IUPAC_NAME>
1-[(2-chlorophenyl)methyl]-3-[2-(1,3-dihydroisoindol-2-yl)ethyl]imidazolidin-2-one

> <PUBCHEM_IUPAC_SYSTEMATIC_NAME>
1-[(2-chlorophenyl)methyl]-3-[2-(1,3-dihydroisoindol-2-yl)ethyl]imidazolidin-2-one

> <PUBCHEM_IUPAC_TRADITIONAL_NAME>
1-(2-chlorobenzyl)-3-(2-isoindolin-2-ylethyl)-2-imidazolidinone

> <PUBCHEM_IUPAC_INCHI>
InChI=1S/C20H22ClN3O/c21-19-8-4-3-7-18(19)15-24-12-11-23(20(24)25)10-9-22-13-16-5-1-2-6-17(16)14-22/h1-8H,9-15H2

> <PUBCHEM_IUPAC_INCHIKEY>
LKPJQZSWFLAVEV-UHFFFAOYSA-N

> <PUBCHEM_XLOGP3_AA>
2.7

> <PUBCHEM_EXACT_MASS>
355.1451400

> <PUBCHEM_MOLECULAR_FORMULA>
C20H22ClN3O

> <PUBCHEM_MOLECULAR_WEIGHT>
355.9

> <PUBCHEM_OPENEYE_CAN_SMILES>
C1CN(C(=O)N1CCN2CC3=CC=CC=C3C2)CC4=CC=CC=C4Cl

> <PUBCHEM_OPENEYE_ISO_SMILES>
C1CN(C(=O)N1CCN2CC3=CC=CC=C3C2)CC4=CC=CC=C4Cl

> <PUBCHEM_CACTVS_TPSA>
26.8

> <PUBCHEM_MONOISOTOPIC_WEIGHT>
355.1451400

> <PUBCHEM_TOTAL_CHARGE>
0

> <PUBCHEM_HEAVY_ATOM_COUNT>
25

> <PUBCHEM_ATOM_DEF_STEREO_COUNT>
0

> <PUBCHEM_ATOM_UDEF_STEREO_COUNT>
0

> <PUBCHEM_BOND_DEF_STEREO_COUNT>
0

> <PUBCHEM_BOND_UDEF_STEREO_COUNT>
0

> <PUBCHEM_ISOTOPIC_ATOM_COUNT>
0

> <PUBCHEM_COMPONENT_COUNT>
1

> <PUBCHEM_CACTVS_TAUTO_COUNT>
-1

> <PUBCHEM_COORDINATE_TYPE>
1
5
255

> <PUBCHEM_BONDANNOTATIONS>
12  13  8
12  16  8
13  17  8
16  19  8
17  20  8
18  21  8
18  22  8
19  20  8
21  23  8
22  24  8
23  25  8
24  25  8

$$$$
