134153418
  -OEChem-09292322382D

 63 67  0     0  0  0  0  0  0999 V2000
    6.4103   -5.4997    0.0000 S   0  0  0  0  0  0  0  0  0  0  0  0
   11.5205    3.3821    0.0000 O   0  0  0  0  0  0  0  0  0  0  0  0
   10.5769    5.8869    0.0000 O   0  0  0  0  0  0  0  0  0  0  0  0
    2.0000   -5.1949    0.0000 O   0  5  0  0  0  0  0  0  0  0  0  0
    2.8660   -6.6949    0.0000 O   0  0  0  0  0  0  0  0  0  0  0  0
    7.3423   -1.0386    0.0000 N   0  0  0  0  0  0  0  0  0  0  0  0
    9.8741    3.9202    0.0000 N   0  0  0  0  0  0  0  0  0  0  0  0
    6.7210   -2.9397    0.0000 N   0  0  0  0  0  0  0  0  0  0  0  0
    6.9939   -4.6949    0.0000 N   0  0  0  0  0  0  0  0  0  0  0  0
    2.8660   -5.6949    0.0000 N   0  3  0  0  0  0  0  0  0  0  0  0
    8.9421    1.0686    0.0000 C   0  0  0  0  0  0  0  0  0  0  0  0
    8.2743    1.8129    0.0000 C   0  0  0  0  0  0  0  0  0  0  0  0
    9.9206    1.2748    0.0000 C   0  0  0  0  0  0  0  0  0  0  0  0
    9.5635    2.9696    0.0000 C   0  0  0  0  0  0  0  0  0  0  0  0
    8.5850    2.7634    0.0000 C   0  0  0  0  0  0  0  0  0  0  0  0
   10.2313    2.2254    0.0000 C   0  0  0  0  0  0  0  0  0  0  0  0
    8.6315    0.1181    0.0000 C   0  0  0  0  0  0  0  0  0  0  0  0
    7.6530   -0.0881    0.0000 C   0  0  0  0  0  0  0  0  0  0  0  0
    8.0102   -1.7830    0.0000 C   0  0  0  0  0  0  0  0  0  0  0  0
    6.3638   -1.2449    0.0000 C   0  0  0  0  0  0  0  0  0  0  0  0
    7.6995   -2.7335    0.0000 C   0  0  0  0  0  0  0  0  0  0  0  0
    6.0531   -2.1954    0.0000 C   0  0  0  0  0  0  0  0  0  0  0  0
   10.8526    4.1264    0.0000 C   0  0  0  0  0  0  0  0  0  0  0  0
    6.4103   -3.8902    0.0000 C   0  0  0  0  0  0  0  0  0  0  0  0
    5.4641   -4.1949    0.0000 C   0  0  0  0  0  0  0  0  0  0  0  0
   11.1633    5.0769    0.0000 C   0  0  0  0  0  0  0  0  0  0  0  0
    5.4641   -5.1949    0.0000 C   0  0  0  0  0  0  0  0  0  0  0  0
    4.5981   -3.6949    0.0000 C   0  0  0  0  0  0  0  0  0  0  0  0
   12.1149    5.3843    0.0000 C   0  0  0  0  0  0  0  0  0  0  0  0
    4.5981   -5.6949    0.0000 C   0  0  0  0  0  0  0  0  0  0  0  0
    3.7320   -4.1949    0.0000 C   0  0  0  0  0  0  0  0  0  0  0  0
    3.7320   -5.1949    0.0000 C   0  0  0  0  0  0  0  0  0  0  0  0
   12.1166    6.3843    0.0000 C   0  0  0  0  0  0  0  0  0  0  0  0
   11.1661    6.6949    0.0000 C   0  0  0  0  0  0  0  0  0  0  0  0
    9.3562    0.6071    0.0000 H   0  0  0  0  0  0  0  0  0  0  0  0
    7.7274    2.1049    0.0000 H   0  0  0  0  0  0  0  0  0  0  0  0
    7.8917    1.3250    0.0000 H   0  0  0  0  0  0  0  0  0  0  0  0
    9.9412    0.6552    0.0000 H   0  0  0  0  0  0  0  0  0  0  0  0
   10.5345    1.1875    0.0000 H   0  0  0  0  0  0  0  0  0  0  0  0
    9.1494    3.4311    0.0000 H   0  0  0  0  0  0  0  0  0  0  0  0
    8.5644    3.3831    0.0000 H   0  0  0  0  0  0  0  0  0  0  0  0
    7.9711    2.8508    0.0000 H   0  0  0  0  0  0  0  0  0  0  0  0
   10.7782    1.9333    0.0000 H   0  0  0  0  0  0  0  0  0  0  0  0
   10.6139    2.7133    0.0000 H   0  0  0  0  0  0  0  0  0  0  0  0
    8.6520   -0.5016    0.0000 H   0  0  0  0  0  0  0  0  0  0  0  0
    9.2453    0.0307    0.0000 H   0  0  0  0  0  0  0  0  0  0  0  0
    7.6324    0.5315    0.0000 H   0  0  0  0  0  0  0  0  0  0  0  0
    7.0392   -0.0008    0.0000 H   0  0  0  0  0  0  0  0  0  0  0  0
    8.5571   -2.0750    0.0000 H   0  0  0  0  0  0  0  0  0  0  0  0
    8.3927   -1.2950    0.0000 H   0  0  0  0  0  0  0  0  0  0  0  0
    6.3432   -0.6252    0.0000 H   0  0  0  0  0  0  0  0  0  0  0  0
    5.7500   -1.1575    0.0000 H   0  0  0  0  0  0  0  0  0  0  0  0
    9.4601    4.3816    0.0000 H   0  0  0  0  0  0  0  0  0  0  0  0
    7.7201   -3.3531    0.0000 H   0  0  0  0  0  0  0  0  0  0  0  0
    8.3133   -2.8208    0.0000 H   0  0  0  0  0  0  0  0  0  0  0  0
    5.5062   -1.9034    0.0000 H   0  0  0  0  0  0  0  0  0  0  0  0
    5.6706   -2.6833    0.0000 H   0  0  0  0  0  0  0  0  0  0  0  0
    4.5981   -3.0749    0.0000 H   0  0  0  0  0  0  0  0  0  0  0  0
   12.6158    5.0190    0.0000 H   0  0  0  0  0  0  0  0  0  0  0  0
    4.5981   -6.3149    0.0000 H   0  0  0  0  0  0  0  0  0  0  0  0
    3.1951   -3.8849    0.0000 H   0  0  0  0  0  0  0  0  0  0  0  0
   12.6188    6.7478    0.0000 H   0  0  0  0  0  0  0  0  0  0  0  0
   10.9755    7.2849    0.0000 H   0  0  0  0  0  0  0  0  0  0  0  0
  1  9  1  0  0  0  0
  1 27  1  0  0  0  0
  2 23  2  0  0  0  0
  3 26  1  0  0  0  0
  3 34  1  0  0  0  0
  4 10  1  0  0  0  0
  5 10  2  0  0  0  0
  6 18  1  0  0  0  0
  6 19  1  0  0  0  0
  6 20  1  0  0  0  0
  7 14  1  0  0  0  0
  7 23  1  0  0  0  0
  7 53  1  0  0  0  0
  8 21  1  0  0  0  0
  8 22  1  0  0  0  0
  8 24  1  0  0  0  0
  9 24  2  0  0  0  0
 10 32  1  0  0  0  0
 11 12  1  0  0  0  0
 11 13  1  0  0  0  0
 11 17  1  0  0  0  0
 11 35  1  0  0  0  0
 12 15  1  0  0  0  0
 12 36  1  0  0  0  0
 12 37  1  0  0  0  0
 13 16  1  0  0  0  0
 13 38  1  0  0  0  0
 13 39  1  0  0  0  0
 14 15  1  0  0  0  0
 14 16  1  0  0  0  0
 14 40  1  0  0  0  0
 15 41  1  0  0  0  0
 15 42  1  0  0  0  0
 16 43  1  0  0  0  0
 16 44  1  0  0  0  0
 17 18  1  0  0  0  0
 17 45  1  0  0  0  0
 17 46  1  0  0  0  0
 18 47  1  0  0  0  0
 18 48  1  0  0  0  0
 19 21  1  0  0  0  0
 19 49  1  0  0  0  0
 19 50  1  0  0  0  0
 20 22  1  0  0  0  0
 20 51  1  0  0  0  0
 20 52  1  0  0  0  0
 21 54  1  0  0  0  0
 21 55  1  0  0  0  0
 22 56  1  0  0  0  0
 22 57  1  0  0  0  0
 23 26  1  0  0  0  0
 24 25  1  0  0  0  0
 25 27  2  0  0  0  0
 25 28  1  0  0  0  0
 26 29  2  0  0  0  0
 27 30  1  0  0  0  0
 28 31  2  0  0  0  0
 28 58  1  0  0  0  0
 29 33  1  0  0  0  0
 29 59  1  0  0  0  0
 30 32  2  0  0  0  0
 30 60  1  0  0  0  0
 31 32  1  0  0  0  0
 31 61  1  0  0  0  0
 33 34  2  0  0  0  0
 33 62  1  0  0  0  0
 34 63  1  0  0  0  0
M  CHG  2   4  -1  10   1
M  END
> <PUBCHEM_COMPOUND_CID>
134153418

> <PUBCHEM_COMPOUND_CANONICALIZED>
1

> <PUBCHEM_CACTVS_COMPLEXITY>
708

> <PUBCHEM_CACTVS_HBOND_ACCEPTOR>
8

> <PUBCHEM_CACTVS_HBOND_DONOR>
1

> <PUBCHEM_CACTVS_ROTATABLE_BOND>
6

> <PUBCHEM_CACTVS_SUBSKEYS>
AAADceB7uABAAAAAAAAAAAAAAAAAAWJAAAA8YIAAAAAAAFgB/AAAHgQUQAAADSzh2gYx9dPQRECtAq9y8wKDCBAlIgBpmLnubNqOZrLEvb+XOSzk1hPY6YeYl4IOCAAAACAEAAAQAAAAQAgAAAAAAAAAAA==

> <PUBCHEM_IUPAC_OPENEYE_NAME>
N-[4-[2-[4-(6-nitro-1,2-benzothiazol-3-yl)piperazin-1-yl]ethyl]cyclohexyl]furan-2-carboxamide

> <PUBCHEM_IUPAC_CAS_NAME>
N-[4-[2-[4-(6-nitro-1,2-benzothiazol-3-yl)-1-piperazinyl]ethyl]cyclohexyl]-2-furancarboxamide

> <PUBCHEM_IUPAC_NAME_MARKUP>
<I>N</I>-[4-[2-[4-(6-nitro-1,2-benzothiazol-3-yl)piperazin-1-yl]ethyl]cyclohexyl]furan-2-carboxamide

> <PUBCHEM_IUPAC_NAME>
N-[4-[2-[4-(6-nitro-1,2-benzothiazol-3-yl)piperazin-1-yl]ethyl]cyclohexyl]furan-2-carboxamide

> <PUBCHEM_IUPAC_SYSTEMATIC_NAME>
N-[4-[2-[4-(6-nitro-1,2-benzothiazol-3-yl)piperazin-1-yl]ethyl]cyclohexyl]furan-2-carboxamide

> <PUBCHEM_IUPAC_TRADITIONAL_NAME>
N-[4-[2-[4-(6-nitro-1,2-benzothiazol-3-yl)piperazino]ethyl]cyclohexyl]-2-furamide

> <PUBCHEM_IUPAC_INCHI>
InChI=1S/C24H29N5O4S/c30-24(21-2-1-15-33-21)25-18-5-3-17(4-6-18)9-10-27-11-13-28(14-12-27)23-20-8-7-19(29(31)32)16-22(20)34-26-23/h1-2,7-8,15-18H,3-6,9-14H2,(H,25,30)

> <PUBCHEM_IUPAC_INCHIKEY>
SVQJCNSOIUXANV-UHFFFAOYSA-N

> <PUBCHEM_XLOGP3_AA>
4.7

> <PUBCHEM_EXACT_MASS>
483.19402560

> <PUBCHEM_MOLECULAR_FORMULA>
C24H29N5O4S

> <PUBCHEM_MOLECULAR_WEIGHT>
483.6

> <PUBCHEM_OPENEYE_CAN_SMILES>
C1CC(CCC1CCN2CCN(CC2)C3=NSC4=C3C=CC(=C4)[N+](=O)[O-])NC(=O)C5=CC=CO5

> <PUBCHEM_OPENEYE_ISO_SMILES>
C1CC(CCC1CCN2CCN(CC2)C3=NSC4=C3C=CC(=C4)[N+](=O)[O-])NC(=O)C5=CC=CO5

> <PUBCHEM_CACTVS_TPSA>
136

> <PUBCHEM_MONOISOTOPIC_WEIGHT>
483.19402560

> <PUBCHEM_TOTAL_CHARGE>
0

> <PUBCHEM_HEAVY_ATOM_COUNT>
34

> <PUBCHEM_ATOM_DEF_STEREO_COUNT>
0

> <PUBCHEM_ATOM_UDEF_STEREO_COUNT>
0

> <PUBCHEM_BOND_DEF_STEREO_COUNT>
0

> <PUBCHEM_BOND_UDEF_STEREO_COUNT>
0

> <PUBCHEM_ISOTOPIC_ATOM_COUNT>
0

> <PUBCHEM_COMPONENT_COUNT>
1

> <PUBCHEM_CACTVS_TAUTO_COUNT>
-1

> <PUBCHEM_COORDINATE_TYPE>
1
5
255

> <PUBCHEM_BONDANNOTATIONS>
1  27  8
1  9  8
24  25  8
25  27  8
25  28  8
26  29  8
27  30  8
28  31  8
29  33  8
3  26  8
3  34  8
30  32  8
31  32  8
33  34  8
9  24  8

$$$$
