57400556
  -OEChem-09292322322D

 73 76  0     0  0  0  0  0  0999 V2000
   13.3382    4.1261    0.0000 O   0  0  0  0  0  0  0  0  0  0  0  0
    9.5172   -1.9895    0.0000 O   0  0  0  0  0  0  0  0  0  0  0  0
    6.3301   -3.4890    0.0000 O   0  0  0  0  0  0  0  0  0  0  0  0
    3.7320   -3.9890    0.0000 O   0  0  0  0  0  0  0  0  0  0  0  0
   14.0526    0.7364    0.0000 N   0  0  0  0  0  0  0  0  0  0  0  0
   14.6739    2.6375    0.0000 N   0  0  0  0  0  0  0  0  0  0  0  0
   11.1636   -2.5276    0.0000 N   0  0  0  0  0  0  0  0  0  0  0  0
    8.9282   -4.9890    0.0000 N   0  0  0  0  0  0  0  0  0  0  0  0
    9.8744   -5.2938    0.0000 N   0  0  0  0  0  0  0  0  0  0  0  0
   15.0311    0.9427    0.0000 C   0  0  0  0  0  0  0  0  0  0  0  0
   13.3847    1.4807    0.0000 C   0  0  0  0  0  0  0  0  0  0  0  0
   15.3418    1.8932    0.0000 C   0  0  0  0  0  0  0  0  0  0  0  0
   13.6954    2.4313    0.0000 C   0  0  0  0  0  0  0  0  0  0  0  0
   13.7419   -0.2141    0.0000 C   0  0  0  0  0  0  0  0  0  0  0  0
   12.7634   -0.4203    0.0000 C   0  0  0  0  0  0  0  0  0  0  0  0
   14.9846    3.5880    0.0000 C   0  0  0  0  0  0  0  0  0  0  0  0
   12.4528   -1.3708    0.0000 C   0  0  0  0  0  0  0  0  0  0  0  0
   11.4743   -1.5770    0.0000 C   0  0  0  0  0  0  0  0  0  0  0  0
   14.3167    4.3323    0.0000 C   0  0  0  0  0  0  0  0  0  0  0  0
   15.9631    3.7942    0.0000 C   0  0  0  0  0  0  0  0  0  0  0  0
   14.6274    5.2828    0.0000 C   0  0  0  0  0  0  0  0  0  0  0  0
   16.2737    4.7447    0.0000 C   0  0  0  0  0  0  0  0  0  0  0  0
   15.6059    5.4890    0.0000 C   0  0  0  0  0  0  0  0  0  0  0  0
   10.1851   -2.7338    0.0000 C   0  0  0  0  0  0  0  0  0  0  0  0
    9.8744   -3.6843    0.0000 C   0  0  0  0  0  0  0  0  0  0  0  0
    8.9282   -3.9890    0.0000 C   0  0  0  0  0  0  0  0  0  0  0  0
   12.6704    4.8704    0.0000 C   0  0  0  0  0  0  0  0  0  0  0  0
   10.4580   -4.4890    0.0000 C   0  0  0  0  0  0  0  0  0  0  0  0
    8.0622   -3.4890    0.0000 C   0  0  0  0  0  0  0  0  0  0  0  0
    8.0622   -5.4890    0.0000 C   0  0  0  0  0  0  0  0  0  0  0  0
    7.1962   -3.9890    0.0000 C   0  0  0  0  0  0  0  0  0  0  0  0
    7.1962   -4.9890    0.0000 C   0  0  0  0  0  0  0  0  0  0  0  0
    5.4641   -3.9890    0.0000 C   0  0  0  0  0  0  0  0  0  0  0  0
    4.5981   -3.4890    0.0000 C   0  0  0  0  0  0  0  0  0  0  0  0
    2.8660   -3.4890    0.0000 C   0  0  0  0  0  0  0  0  0  0  0  0
    2.0000   -3.9890    0.0000 C   0  0  0  0  0  0  0  0  0  0  0  0
   15.0517    0.3230    0.0000 H   0  0  0  0  0  0  0  0  0  0  0  0
   15.6449    0.8553    0.0000 H   0  0  0  0  0  0  0  0  0  0  0  0
   12.8378    1.7728    0.0000 H   0  0  0  0  0  0  0  0  0  0  0  0
   13.0022    0.9928    0.0000 H   0  0  0  0  0  0  0  0  0  0  0  0
   15.8887    1.6012    0.0000 H   0  0  0  0  0  0  0  0  0  0  0  0
   15.7243    2.3811    0.0000 H   0  0  0  0  0  0  0  0  0  0  0  0
   13.6748    3.0509    0.0000 H   0  0  0  0  0  0  0  0  0  0  0  0
   13.0816    2.5186    0.0000 H   0  0  0  0  0  0  0  0  0  0  0  0
   13.7625   -0.8337    0.0000 H   0  0  0  0  0  0  0  0  0  0  0  0
   14.3557   -0.3014    0.0000 H   0  0  0  0  0  0  0  0  0  0  0  0
   12.7429    0.1994    0.0000 H   0  0  0  0  0  0  0  0  0  0  0  0
   12.1496   -0.3330    0.0000 H   0  0  0  0  0  0  0  0  0  0  0  0
   12.4733   -1.9905    0.0000 H   0  0  0  0  0  0  0  0  0  0  0  0
   13.0666   -1.4582    0.0000 H   0  0  0  0  0  0  0  0  0  0  0  0
   11.4537   -0.9574    0.0000 H   0  0  0  0  0  0  0  0  0  0  0  0
   10.8604   -1.4897    0.0000 H   0  0  0  0  0  0  0  0  0  0  0  0
   16.3771    3.3328    0.0000 H   0  0  0  0  0  0  0  0  0  0  0  0
   11.5777   -2.9890    0.0000 H   0  0  0  0  0  0  0  0  0  0  0  0
   14.2133    5.7443    0.0000 H   0  0  0  0  0  0  0  0  0  0  0  0
   16.8804    4.8726    0.0000 H   0  0  0  0  0  0  0  0  0  0  0  0
   15.7985    6.0784    0.0000 H   0  0  0  0  0  0  0  0  0  0  0  0
   13.1319    5.2844    0.0000 H   0  0  0  0  0  0  0  0  0  0  0  0
   12.2563    5.3318    0.0000 H   0  0  0  0  0  0  0  0  0  0  0  0
   12.2089    4.4563    0.0000 H   0  0  0  0  0  0  0  0  0  0  0  0
   11.0780   -4.4890    0.0000 H   0  0  0  0  0  0  0  0  0  0  0  0
    8.0622   -2.8690    0.0000 H   0  0  0  0  0  0  0  0  0  0  0  0
    8.0622   -6.1090    0.0000 H   0  0  0  0  0  0  0  0  0  0  0  0
    6.6592   -5.2990    0.0000 H   0  0  0  0  0  0  0  0  0  0  0  0
    5.0656   -4.4640    0.0000 H   0  0  0  0  0  0  0  0  0  0  0  0
    5.8626   -4.4640    0.0000 H   0  0  0  0  0  0  0  0  0  0  0  0
    4.9966   -3.0141    0.0000 H   0  0  0  0  0  0  0  0  0  0  0  0
    4.1996   -3.0141    0.0000 H   0  0  0  0  0  0  0  0  0  0  0  0
    3.2646   -3.0141    0.0000 H   0  0  0  0  0  0  0  0  0  0  0  0
    2.4675   -3.0141    0.0000 H   0  0  0  0  0  0  0  0  0  0  0  0
    1.6900   -3.4521    0.0000 H   0  0  0  0  0  0  0  0  0  0  0  0
    1.4631   -4.2990    0.0000 H   0  0  0  0  0  0  0  0  0  0  0  0
    2.3100   -4.5260    0.0000 H   0  0  0  0  0  0  0  0  0  0  0  0
  1 19  1  0  0  0  0
  1 27  1  0  0  0  0
  2 24  2  0  0  0  0
  3 31  1  0  0  0  0
  3 33  1  0  0  0  0
  4 34  1  0  0  0  0
  4 35  1  0  0  0  0
  5 10  1  0  0  0  0
  5 11  1  0  0  0  0
  5 14  1  0  0  0  0
  6 12  1  0  0  0  0
  6 13  1  0  0  0  0
  6 16  1  0  0  0  0
  7 18  1  0  0  0  0
  7 24  1  0  0  0  0
  7 54  1  0  0  0  0
  8  9  1  0  0  0  0
  8 26  1  0  0  0  0
  8 30  1  0  0  0  0
  9 28  2  0  0  0  0
 10 12  1  0  0  0  0
 10 37  1  0  0  0  0
 10 38  1  0  0  0  0
 11 13  1  0  0  0  0
 11 39  1  0  0  0  0
 11 40  1  0  0  0  0
 12 41  1  0  0  0  0
 12 42  1  0  0  0  0
 13 43  1  0  0  0  0
 13 44  1  0  0  0  0
 14 15  1  0  0  0  0
 14 45  1  0  0  0  0
 14 46  1  0  0  0  0
 15 17  1  0  0  0  0
 15 47  1  0  0  0  0
 15 48  1  0  0  0  0
 16 19  1  0  0  0  0
 16 20  2  0  0  0  0
 17 18  1  0  0  0  0
 17 49  1  0  0  0  0
 17 50  1  0  0  0  0
 18 51  1  0  0  0  0
 18 52  1  0  0  0  0
 19 21  2  0  0  0  0
 20 22  1  0  0  0  0
 20 53  1  0  0  0  0
 21 23  1  0  0  0  0
 21 55  1  0  0  0  0
 22 23  2  0  0  0  0
 22 56  1  0  0  0  0
 23 57  1  0  0  0  0
 24 25  1  0  0  0  0
 25 26  2  0  0  0  0
 25 28  1  0  0  0  0
 26 29  1  0  0  0  0
 27 58  1  0  0  0  0
 27 59  1  0  0  0  0
 27 60  1  0  0  0  0
 28 61  1  0  0  0  0
 29 31  2  0  0  0  0
 29 62  1  0  0  0  0
 30 32  2  0  0  0  0
 30 63  1  0  0  0  0
 31 32  1  0  0  0  0
 32 64  1  0  0  0  0
 33 34  1  0  0  0  0
 33 65  1  0  0  0  0
 33 66  1  0  0  0  0
 34 67  1  0  0  0  0
 34 68  1  0  0  0  0
 35 36  1  0  0  0  0
 35 69  1  0  0  0  0
 35 70  1  0  0  0  0
 36 71  1  0  0  0  0
 36 72  1  0  0  0  0
 36 73  1  0  0  0  0
M  END
> <PUBCHEM_COMPOUND_CID>
57400556

> <PUBCHEM_COMPOUND_CANONICALIZED>
1

> <PUBCHEM_CACTVS_COMPLEXITY>
648

> <PUBCHEM_CACTVS_HBOND_ACCEPTOR>
7

> <PUBCHEM_CACTVS_HBOND_DONOR>
1

> <PUBCHEM_CACTVS_ROTATABLE_BOND>
13

> <PUBCHEM_CACTVS_SUBSKEYS>
AAADcfB7uAAAAAAAAAAAAAAAAAAAAWAAAAA8WIAAAAAAAFgB8AAAHgAYAAAADAzhngY+xrPIFACqAzV3VACSjCA1oiAY2KE/bNgPZvrE9duXvajm3hna6ceY3ELMAAAAAAAAEAAAAAAAAAAgAAAAAAAAAA==

> <PUBCHEM_IUPAC_OPENEYE_NAME>
5-(2-ethoxyethoxy)-N-[4-[4-(2-methoxyphenyl)piperazin-1-yl]butyl]pyrazolo[1,5-a]pyridine-3-carboxamide

> <PUBCHEM_IUPAC_CAS_NAME>
5-(2-ethoxyethoxy)-N-[4-[4-(2-methoxyphenyl)-1-piperazinyl]butyl]-3-pyrazolo[1,5-a]pyridinecarboxamide

> <PUBCHEM_IUPAC_NAME_MARKUP>
5-(2-ethoxyethoxy)-<I>N</I>-[4-[4-(2-methoxyphenyl)piperazin-1-yl]butyl]pyrazolo[1,5-a]pyridine-3-carboxamide

> <PUBCHEM_IUPAC_NAME>
5-(2-ethoxyethoxy)-N-[4-[4-(2-methoxyphenyl)piperazin-1-yl]butyl]pyrazolo[1,5-a]pyridine-3-carboxamide

> <PUBCHEM_IUPAC_SYSTEMATIC_NAME>
5-(2-ethoxyethoxy)-N-[4-[4-(2-methoxyphenyl)piperazin-1-yl]butyl]pyrazolo[1,5-a]pyridine-3-carboxamide

> <PUBCHEM_IUPAC_TRADITIONAL_NAME>
5-(2-ethoxyethoxy)-N-[4-[4-(2-methoxyphenyl)piperazino]butyl]pyrazolo[1,5-a]pyridine-3-carboxamide

> <PUBCHEM_IUPAC_INCHI>
InChI=1S/C27H37N5O4/c1-3-35-18-19-36-22-10-13-32-25(20-22)23(21-29-32)27(33)28-11-6-7-12-30-14-16-31(17-15-30)24-8-4-5-9-26(24)34-2/h4-5,8-10,13,20-21H,3,6-7,11-12,14-19H2,1-2H3,(H,28,33)

> <PUBCHEM_IUPAC_INCHIKEY>
PKJVDKUHFZYEMN-UHFFFAOYSA-N

> <PUBCHEM_XLOGP3_AA>
2.8

> <PUBCHEM_EXACT_MASS>
495.28455468

> <PUBCHEM_MOLECULAR_FORMULA>
C27H37N5O4

> <PUBCHEM_MOLECULAR_WEIGHT>
495.6

> <PUBCHEM_OPENEYE_CAN_SMILES>
CCOCCOC1=CC2=C(C=NN2C=C1)C(=O)NCCCCN3CCN(CC3)C4=CC=CC=C4OC

> <PUBCHEM_OPENEYE_ISO_SMILES>
CCOCCOC1=CC2=C(C=NN2C=C1)C(=O)NCCCCN3CCN(CC3)C4=CC=CC=C4OC

> <PUBCHEM_CACTVS_TPSA>
80.6

> <PUBCHEM_MONOISOTOPIC_WEIGHT>
495.28455468

> <PUBCHEM_TOTAL_CHARGE>
0

> <PUBCHEM_HEAVY_ATOM_COUNT>
36

> <PUBCHEM_ATOM_DEF_STEREO_COUNT>
0

> <PUBCHEM_ATOM_UDEF_STEREO_COUNT>
0

> <PUBCHEM_BOND_DEF_STEREO_COUNT>
0

> <PUBCHEM_BOND_UDEF_STEREO_COUNT>
0

> <PUBCHEM_ISOTOPIC_ATOM_COUNT>
0

> <PUBCHEM_COMPONENT_COUNT>
1

> <PUBCHEM_CACTVS_TAUTO_COUNT>
-1

> <PUBCHEM_COORDINATE_TYPE>
1
5
255

> <PUBCHEM_BONDANNOTATIONS>
16  19  8
16  20  8
19  21  8
20  22  8
21  23  8
22  23  8
25  26  8
25  28  8
26  29  8
29  31  8
30  32  8
31  32  8
8  26  8
8  30  8
8  9  8
9  28  8

$$$$
