44353488
  -OEChem-09292322202D

 60 62  0     1  0  0  0  0  0999 V2000
   10.7282    1.0071    0.0000 S   0  0  0  0  0  0  0  0  0  0  0  0
   14.1846    3.0204    0.0000 O   0  0  0  0  0  0  0  0  0  0  0  0
    4.5981   -0.5204    0.0000 N   0  0  0  0  0  0  0  0  0  0  0  0
    5.4641   -0.0204    0.0000 C   0  0  3  0  0  0  0  0  0  0  0  0
    5.4641    0.9796    0.0000 C   0  0  0  0  0  0  0  0  0  0  0  0
    6.3301   -0.5204    0.0000 C   0  0  0  0  0  0  0  0  0  0  0  0
    6.3301    1.4796    0.0000 C   0  0  0  0  0  0  0  0  0  0  0  0
    7.1962   -0.0204    0.0000 C   0  0  0  0  0  0  0  0  0  0  0  0
    7.1962    0.9796    0.0000 C   0  0  0  0  0  0  0  0  0  0  0  0
    3.7320   -0.0204    0.0000 C   0  0  0  0  0  0  0  0  0  0  0  0
    4.5981   -1.5204    0.0000 C   0  0  0  0  0  0  0  0  0  0  0  0
    8.0901    1.5143    0.0000 C   0  0  0  0  0  0  0  0  0  0  0  0
    8.0901   -0.5551    0.0000 C   0  0  0  0  0  0  0  0  0  0  0  0
    2.8660   -0.5204    0.0000 C   0  0  0  0  0  0  0  0  0  0  0  0
    3.7320   -2.0204    0.0000 C   0  0  0  0  0  0  0  0  0  0  0  0
    8.9962    1.0004    0.0000 C   0  0  0  0  0  0  0  0  0  0  0  0
    8.9962   -0.0412    0.0000 C   0  0  0  0  0  0  0  0  0  0  0  0
    2.0000   -0.0204    0.0000 C   0  0  0  0  0  0  0  0  0  0  0  0
    3.7320   -3.0204    0.0000 C   0  0  0  0  0  0  0  0  0  0  0  0
    9.8602    1.5037    0.0000 C   0  0  0  0  0  0  0  0  0  0  0  0
   11.5923    1.5104    0.0000 C   0  0  0  0  0  0  0  0  0  0  0  0
   12.4602    1.0138    0.0000 C   0  0  0  0  0  0  0  0  0  0  0  0
   11.5884    2.5104    0.0000 C   0  0  0  0  0  0  0  0  0  0  0  0
   13.3243    1.5171    0.0000 C   0  0  0  0  0  0  0  0  0  0  0  0
   12.4525    3.0137    0.0000 C   0  0  0  0  0  0  0  0  0  0  0  0
   13.3205    2.5171    0.0000 C   0  0  0  0  0  0  0  0  0  0  0  0
   15.0525    2.5238    0.0000 C   0  0  0  0  0  0  0  0  0  0  0  0
    5.4641   -0.6404    0.0000 H   0  0  0  0  0  0  0  0  0  0  0  0
    5.2520    1.5622    0.0000 H   0  0  0  0  0  0  0  0  0  0  0  0
    4.8535    0.8719    0.0000 H   0  0  0  0  0  0  0  0  0  0  0  0
    5.9316   -0.9954    0.0000 H   0  0  0  0  0  0  0  0  0  0  0  0
    6.7287   -0.9954    0.0000 H   0  0  0  0  0  0  0  0  0  0  0  0
    6.7287    1.9545    0.0000 H   0  0  0  0  0  0  0  0  0  0  0  0
    5.9316    1.9545    0.0000 H   0  0  0  0  0  0  0  0  0  0  0  0
    4.1306    0.4545    0.0000 H   0  0  0  0  0  0  0  0  0  0  0  0
    3.3335    0.4545    0.0000 H   0  0  0  0  0  0  0  0  0  0  0  0
    4.8101   -2.1030    0.0000 H   0  0  0  0  0  0  0  0  0  0  0  0
    5.2087   -1.4128    0.0000 H   0  0  0  0  0  0  0  0  0  0  0  0
    8.0829    2.1342    0.0000 H   0  0  0  0  0  0  0  0  0  0  0  0
    8.0829   -1.1750    0.0000 H   0  0  0  0  0  0  0  0  0  0  0  0
    2.4675   -0.9954    0.0000 H   0  0  0  0  0  0  0  0  0  0  0  0
    3.2646   -0.9954    0.0000 H   0  0  0  0  0  0  0  0  0  0  0  0
    3.5200   -1.4378    0.0000 H   0  0  0  0  0  0  0  0  0  0  0  0
    3.1215   -2.1281    0.0000 H   0  0  0  0  0  0  0  0  0  0  0  0
    9.5319   -0.3533    0.0000 H   0  0  0  0  0  0  0  0  0  0  0  0
    2.3100    0.5165    0.0000 H   0  0  0  0  0  0  0  0  0  0  0  0
    1.4631    0.2896    0.0000 H   0  0  0  0  0  0  0  0  0  0  0  0
    1.6900   -0.5574    0.0000 H   0  0  0  0  0  0  0  0  0  0  0  0
    3.1120   -3.0204    0.0000 H   0  0  0  0  0  0  0  0  0  0  0  0
    3.7320   -3.6404    0.0000 H   0  0  0  0  0  0  0  0  0  0  0  0
    4.3520   -3.0204    0.0000 H   0  0  0  0  0  0  0  0  0  0  0  0
   10.2569    1.9802    0.0000 H   0  0  0  0  0  0  0  0  0  0  0  0
    9.4599    1.9771    0.0000 H   0  0  0  0  0  0  0  0  0  0  0  0
   12.4626    0.3938    0.0000 H   0  0  0  0  0  0  0  0  0  0  0  0
   11.0503    2.8183    0.0000 H   0  0  0  0  0  0  0  0  0  0  0  0
   13.8625    1.2092    0.0000 H   0  0  0  0  0  0  0  0  0  0  0  0
   12.4501    3.6337    0.0000 H   0  0  0  0  0  0  0  0  0  0  0  0
   14.7446    1.9856    0.0000 H   0  0  0  0  0  0  0  0  0  0  0  0
   15.5906    2.2158    0.0000 H   0  0  0  0  0  0  0  0  0  0  0  0
   15.3604    3.0619    0.0000 H   0  0  0  0  0  0  0  0  0  0  0  0
  1 20  1  0  0  0  0
  1 21  1  0  0  0  0
  2 26  1  0  0  0  0
  2 27  1  0  0  0  0
  3  4  1  0  0  0  0
  3 10  1  0  0  0  0
  3 11  1  0  0  0  0
  4  5  1  0  0  0  0
  4  6  1  0  0  0  0
  4 28  1  0  0  0  0
  5  7  1  0  0  0  0
  5 29  1  0  0  0  0
  5 30  1  0  0  0  0
  6  8  1  0  0  0  0
  6 31  1  0  0  0  0
  6 32  1  0  0  0  0
  7  9  1  0  0  0  0
  7 33  1  0  0  0  0
  7 34  1  0  0  0  0
  8  9  2  0  0  0  0
  8 13  1  0  0  0  0
  9 12  1  0  0  0  0
 10 14  1  0  0  0  0
 10 35  1  0  0  0  0
 10 36  1  0  0  0  0
 11 15  1  0  0  0  0
 11 37  1  0  0  0  0
 11 38  1  0  0  0  0
 12 16  2  0  0  0  0
 12 39  1  0  0  0  0
 13 17  2  0  0  0  0
 13 40  1  0  0  0  0
 14 18  1  0  0  0  0
 14 41  1  0  0  0  0
 14 42  1  0  0  0  0
 15 19  1  0  0  0  0
 15 43  1  0  0  0  0
 15 44  1  0  0  0  0
 16 17  1  0  0  0  0
 16 20  1  0  0  0  0
 17 45  1  0  0  0  0
 18 46  1  0  0  0  0
 18 47  1  0  0  0  0
 18 48  1  0  0  0  0
 19 49  1  0  0  0  0
 19 50  1  0  0  0  0
 19 51  1  0  0  0  0
 20 52  1  0  0  0  0
 20 53  1  0  0  0  0
 21 22  2  0  0  0  0
 21 23  1  0  0  0  0
 22 24  1  0  0  0  0
 22 54  1  0  0  0  0
 23 25  2  0  0  0  0
 23 55  1  0  0  0  0
 24 26  2  0  0  0  0
 24 56  1  0  0  0  0
 25 26  1  0  0  0  0
 25 57  1  0  0  0  0
 27 58  1  0  0  0  0
 27 59  1  0  0  0  0
 27 60  1  0  0  0  0
M  END
> <PUBCHEM_COMPOUND_CID>
44353488

> <PUBCHEM_COMPOUND_CANONICALIZED>
1

> <PUBCHEM_CACTVS_COMPLEXITY>
403

> <PUBCHEM_CACTVS_HBOND_ACCEPTOR>
3

> <PUBCHEM_CACTVS_HBOND_DONOR>
0

> <PUBCHEM_CACTVS_ROTATABLE_BOND>
9

> <PUBCHEM_CACTVS_SUBSKEYS>
AAADcfB6IABAAAAAAAAAAAAAAAAAAAAAAAAwYMAAAAAAAADBQAAAHgQAAAAADCzF2AayB4MABAiAAiBCAAACCAAgKBAIiBgOCIgMJiKksRuEMCAkwBGoqAeQwMAOwIACAAAQAACRAASAACAAAAAAAAAAAA==

> <PUBCHEM_IUPAC_OPENEYE_NAME>
6-[(4-methoxyphenyl)sulfanylmethyl]-N,N-dipropyl-tetralin-2-amine

> <PUBCHEM_IUPAC_CAS_NAME>
6-[[(4-methoxyphenyl)thio]methyl]-N,N-dipropyl-1,2,3,4-tetrahydronaphthalen-2-amine

> <PUBCHEM_IUPAC_NAME_MARKUP>
6-[(4-methoxyphenyl)sulfanylmethyl]-<I>N</I>,<I>N</I>-dipropyl-1,2,3,4-tetrahydronaphthalen-2-amine

> <PUBCHEM_IUPAC_NAME>
6-[(4-methoxyphenyl)sulfanylmethyl]-N,N-dipropyl-1,2,3,4-tetrahydronaphthalen-2-amine

> <PUBCHEM_IUPAC_SYSTEMATIC_NAME>
6-[(4-methoxyphenyl)sulfanylmethyl]-N,N-dipropyl-1,2,3,4-tetrahydronaphthalen-2-amine

> <PUBCHEM_IUPAC_TRADITIONAL_NAME>
[6-[[(4-methoxyphenyl)thio]methyl]tetralin-2-yl]-dipropyl-amine

> <PUBCHEM_IUPAC_INCHI>
InChI=1S/C24H33NOS/c1-4-14-25(15-5-2)22-9-8-20-16-19(6-7-21(20)17-22)18-27-24-12-10-23(26-3)11-13-24/h6-7,10-13,16,22H,4-5,8-9,14-15,17-18H2,1-3H3

> <PUBCHEM_IUPAC_INCHIKEY>
ZFEFDWZMIMRBOX-UHFFFAOYSA-N

> <PUBCHEM_XLOGP3_AA>
6.4

> <PUBCHEM_EXACT_MASS>
383.22828585

> <PUBCHEM_MOLECULAR_FORMULA>
C24H33NOS

> <PUBCHEM_MOLECULAR_WEIGHT>
383.6

> <PUBCHEM_OPENEYE_CAN_SMILES>
CCCN(CCC)C1CCC2=C(C1)C=CC(=C2)CSC3=CC=C(C=C3)OC

> <PUBCHEM_OPENEYE_ISO_SMILES>
CCCN(CCC)C1CCC2=C(C1)C=CC(=C2)CSC3=CC=C(C=C3)OC

> <PUBCHEM_CACTVS_TPSA>
37.8

> <PUBCHEM_MONOISOTOPIC_WEIGHT>
383.22828585

> <PUBCHEM_TOTAL_CHARGE>
0

> <PUBCHEM_HEAVY_ATOM_COUNT>
27

> <PUBCHEM_ATOM_DEF_STEREO_COUNT>
0

> <PUBCHEM_ATOM_UDEF_STEREO_COUNT>
1

> <PUBCHEM_BOND_DEF_STEREO_COUNT>
0

> <PUBCHEM_BOND_UDEF_STEREO_COUNT>
0

> <PUBCHEM_ISOTOPIC_ATOM_COUNT>
0

> <PUBCHEM_COMPONENT_COUNT>
1

> <PUBCHEM_CACTVS_TAUTO_COUNT>
-1

> <PUBCHEM_COORDINATE_TYPE>
1
5
255

> <PUBCHEM_BONDANNOTATIONS>
12  16  8
13  17  8
16  17  8
21  22  8
21  23  8
22  24  8
23  25  8
24  26  8
25  26  8
4  3  3
8  13  8
8  9  8
9  12  8

$$$$
