44404459
  -OEChem-09292322262D

 59 63  0     0  0  0  0  0  0999 V2000
    4.9556   -4.5832    0.0000 S   0  0  0  0  0  0  0  0  0  0  0  0
    3.4702    4.5092    0.0000 F   0  0  0  0  0  0  0  0  0  0  0  0
    4.4033   -0.0595    0.0000 N   0  0  0  0  0  0  0  0  0  0  0  0
    7.0003    2.4850    0.0000 N   0  0  0  0  0  0  0  0  0  0  0  0
    4.4264   -2.0594    0.0000 N   0  0  0  0  0  0  0  0  0  0  0  0
    5.2494   -3.6336    0.0000 N   0  0  0  0  0  0  0  0  0  0  0  0
    7.0003    4.4850    0.0000 C   0  0  0  0  0  0  0  0  0  0  0  0
    7.8663    3.9850    0.0000 C   0  0  0  0  0  0  0  0  0  0  0  0
    6.1343    3.9850    0.0000 C   0  0  0  0  0  0  0  0  0  0  0  0
    6.1343    2.9850    0.0000 C   0  0  0  0  0  0  0  0  0  0  0  0
    7.8663    2.9850    0.0000 C   0  0  0  0  0  0  0  0  0  0  0  0
    5.2403    2.4503    0.0000 C   0  0  0  0  0  0  0  0  0  0  0  0
    4.3917    0.9404    0.0000 C   0  0  0  0  0  0  0  0  0  0  0  0
    5.2519    1.4504    0.0000 C   0  0  0  0  0  0  0  0  0  0  0  0
    7.5003    5.3510    0.0000 C   0  0  0  0  0  0  0  0  0  0  0  0
    6.5003    5.3510    0.0000 C   0  0  0  0  0  0  0  0  0  0  0  0
    3.5431   -0.5695    0.0000 C   0  0  0  0  0  0  0  0  0  0  0  0
    5.2750   -0.5495    0.0000 C   0  0  0  0  0  0  0  0  0  0  0  0
    3.5546   -1.5694    0.0000 C   0  0  0  0  0  0  0  0  0  0  0  0
    5.2866   -1.5494    0.0000 C   0  0  0  0  0  0  0  0  0  0  0  0
    5.2403    4.5197    0.0000 C   0  0  0  0  0  0  0  0  0  0  0  0
    4.3342    2.9642    0.0000 C   0  0  0  0  0  0  0  0  0  0  0  0
    4.3342    4.0058    0.0000 C   0  0  0  0  0  0  0  0  0  0  0  0
    4.4380   -3.0593    0.0000 C   0  0  0  0  0  0  0  0  0  0  0  0
    3.6400   -3.6522    0.0000 C   0  0  0  0  0  0  0  0  0  0  0  0
    3.9616   -4.5990    0.0000 C   0  0  0  0  0  0  0  0  0  0  0  0
    2.6592   -3.4573    0.0000 C   0  0  0  0  0  0  0  0  0  0  0  0
    3.3025   -5.3510    0.0000 C   0  0  0  0  0  0  0  0  0  0  0  0
    2.0000   -4.2093    0.0000 C   0  0  0  0  0  0  0  0  0  0  0  0
    2.3216   -5.1561    0.0000 C   0  0  0  0  0  0  0  0  0  0  0  0
    8.4769    3.8773    0.0000 H   0  0  0  0  0  0  0  0  0  0  0  0
    8.0784    4.5676    0.0000 H   0  0  0  0  0  0  0  0  0  0  0  0
    8.0784    2.4024    0.0000 H   0  0  0  0  0  0  0  0  0  0  0  0
    8.4769    3.0927    0.0000 H   0  0  0  0  0  0  0  0  0  0  0  0
    4.1729    1.5205    0.0000 H   0  0  0  0  0  0  0  0  0  0  0  0
    3.7824    0.8257    0.0000 H   0  0  0  0  0  0  0  0  0  0  0  0
    5.4707    0.8703    0.0000 H   0  0  0  0  0  0  0  0  0  0  0  0
    5.8612    1.5651    0.0000 H   0  0  0  0  0  0  0  0  0  0  0  0
    8.0372    5.0410    0.0000 H   0  0  0  0  0  0  0  0  0  0  0  0
    7.8103    5.8880    0.0000 H   0  0  0  0  0  0  0  0  0  0  0  0
    6.9634    5.6610    0.0000 H   0  0  0  0  0  0  0  0  0  0  0  0
    7.0372    5.6610    0.0000 H   0  0  0  0  0  0  0  0  0  0  0  0
    6.1903    5.8880    0.0000 H   0  0  0  0  0  0  0  0  0  0  0  0
    5.9634    5.0410    0.0000 H   0  0  0  0  0  0  0  0  0  0  0  0
    3.3243    0.0106    0.0000 H   0  0  0  0  0  0  0  0  0  0  0  0
    2.9338   -0.6842    0.0000 H   0  0  0  0  0  0  0  0  0  0  0  0
    5.8868   -0.6501    0.0000 H   0  0  0  0  0  0  0  0  0  0  0  0
    5.4803    0.0356    0.0000 H   0  0  0  0  0  0  0  0  0  0  0  0
    7.0003    1.8650    0.0000 H   0  0  0  0  0  0  0  0  0  0  0  0
    2.9428   -1.4688    0.0000 H   0  0  0  0  0  0  0  0  0  0  0  0
    3.3493   -2.1545    0.0000 H   0  0  0  0  0  0  0  0  0  0  0  0
    5.5054   -2.1295    0.0000 H   0  0  0  0  0  0  0  0  0  0  0  0
    5.8959   -1.4347    0.0000 H   0  0  0  0  0  0  0  0  0  0  0  0
    5.2475    5.1396    0.0000 H   0  0  0  0  0  0  0  0  0  0  0  0
    3.7985    2.6521    0.0000 H   0  0  0  0  0  0  0  0  0  0  0  0
    2.4598   -2.8702    0.0000 H   0  0  0  0  0  0  0  0  0  0  0  0
    3.5019   -5.9381    0.0000 H   0  0  0  0  0  0  0  0  0  0  0  0
    1.3919   -4.0884    0.0000 H   0  0  0  0  0  0  0  0  0  0  0  0
    1.9129   -5.6224    0.0000 H   0  0  0  0  0  0  0  0  0  0  0  0
  1  6  1  0  0  0  0
  1 26  1  0  0  0  0
  2 23  1  0  0  0  0
  3 13  1  0  0  0  0
  3 17  1  0  0  0  0
  3 18  1  0  0  0  0
  4 10  1  0  0  0  0
  4 11  1  0  0  0  0
  4 49  1  0  0  0  0
  5 19  1  0  0  0  0
  5 20  1  0  0  0  0
  5 24  1  0  0  0  0
  6 24  2  0  0  0  0
  7  8  1  0  0  0  0
  7  9  1  0  0  0  0
  7 15  1  0  0  0  0
  7 16  1  0  0  0  0
  8 11  1  0  0  0  0
  8 31  1  0  0  0  0
  8 32  1  0  0  0  0
  9 10  1  0  0  0  0
  9 21  2  0  0  0  0
 10 12  2  0  0  0  0
 11 33  1  0  0  0  0
 11 34  1  0  0  0  0
 12 14  1  0  0  0  0
 12 22  1  0  0  0  0
 13 14  1  0  0  0  0
 13 35  1  0  0  0  0
 13 36  1  0  0  0  0
 14 37  1  0  0  0  0
 14 38  1  0  0  0  0
 15 39  1  0  0  0  0
 15 40  1  0  0  0  0
 15 41  1  0  0  0  0
 16 42  1  0  0  0  0
 16 43  1  0  0  0  0
 16 44  1  0  0  0  0
 17 19  1  0  0  0  0
 17 45  1  0  0  0  0
 17 46  1  0  0  0  0
 18 20  1  0  0  0  0
 18 47  1  0  0  0  0
 18 48  1  0  0  0  0
 19 50  1  0  0  0  0
 19 51  1  0  0  0  0
 20 52  1  0  0  0  0
 20 53  1  0  0  0  0
 21 23  1  0  0  0  0
 21 54  1  0  0  0  0
 22 23  2  0  0  0  0
 22 55  1  0  0  0  0
 24 25  1  0  0  0  0
 25 26  1  0  0  0  0
 25 27  2  0  0  0  0
 26 28  2  0  0  0  0
 27 29  1  0  0  0  0
 27 56  1  0  0  0  0
 28 30  1  0  0  0  0
 28 57  1  0  0  0  0
 29 30  2  0  0  0  0
 29 58  1  0  0  0  0
 30 59  1  0  0  0  0
M  END
> <PUBCHEM_COMPOUND_CID>
44404459

> <PUBCHEM_COMPOUND_CANONICALIZED>
1

> <PUBCHEM_CACTVS_COMPLEXITY>
582

> <PUBCHEM_CACTVS_HBOND_ACCEPTOR>
6

> <PUBCHEM_CACTVS_HBOND_DONOR>
1

> <PUBCHEM_CACTVS_ROTATABLE_BOND>
4

> <PUBCHEM_CACTVS_SUBSKEYS>
AAADceB7gQBAAAAAAAAAAAAAAAAAAWAAAAA8eIEAAAAAAFix9AAAHQQQQAAADgjBWgwz8dPAAACkAiZiYACDABAhAABJmLgoRJiIYKLAmZGUIAxgkALIyAcQgMAPgAACAAAGAAAAAAQAAAwAAAAAAAAAAA==

> <PUBCHEM_IUPAC_OPENEYE_NAME>
3-[4-[2-(6-fluoro-4,4-dimethyl-2,3-dihydro-1H-quinolin-8-yl)ethyl]piperazin-1-yl]-1,2-benzothiazole

> <PUBCHEM_IUPAC_CAS_NAME>
3-[4-[2-(6-fluoro-4,4-dimethyl-2,3-dihydro-1H-quinolin-8-yl)ethyl]-1-piperazinyl]-1,2-benzothiazole

> <PUBCHEM_IUPAC_NAME_MARKUP>
3-[4-[2-(6-fluoro-4,4-dimethyl-2,3-dihydro-1<I>H</I>-quinolin-8-yl)ethyl]piperazin-1-yl]-1,2-benzothiazole

> <PUBCHEM_IUPAC_NAME>
3-[4-[2-(6-fluoro-4,4-dimethyl-2,3-dihydro-1H-quinolin-8-yl)ethyl]piperazin-1-yl]-1,2-benzothiazole

> <PUBCHEM_IUPAC_SYSTEMATIC_NAME>
3-[4-[2-(6-fluoranyl-4,4-dimethyl-2,3-dihydro-1H-quinolin-8-yl)ethyl]piperazin-1-yl]-1,2-benzothiazole

> <PUBCHEM_IUPAC_TRADITIONAL_NAME>
3-[4-[2-(6-fluoro-4,4-dimethyl-2,3-dihydro-1H-quinolin-8-yl)ethyl]piperazino]-1,2-benzothiazole

> <PUBCHEM_IUPAC_INCHI>
InChI=1S/C24H29FN4S/c1-24(2)8-9-26-22-17(15-18(25)16-20(22)24)7-10-28-11-13-29(14-12-28)23-19-5-3-4-6-21(19)30-27-23/h3-6,15-16,26H,7-14H2,1-2H3

> <PUBCHEM_IUPAC_INCHIKEY>
SWKDCCLYHAYMLD-UHFFFAOYSA-N

> <PUBCHEM_XLOGP3_AA>
5.9

> <PUBCHEM_EXACT_MASS>
424.20969628

> <PUBCHEM_MOLECULAR_FORMULA>
C24H29FN4S

> <PUBCHEM_MOLECULAR_WEIGHT>
424.6

> <PUBCHEM_OPENEYE_CAN_SMILES>
CC1(CCNC2=C(C=C(C=C21)F)CCN3CCN(CC3)C4=NSC5=CC=CC=C54)C

> <PUBCHEM_OPENEYE_ISO_SMILES>
CC1(CCNC2=C(C=C(C=C21)F)CCN3CCN(CC3)C4=NSC5=CC=CC=C54)C

> <PUBCHEM_CACTVS_TPSA>
59.6

> <PUBCHEM_MONOISOTOPIC_WEIGHT>
424.20969628

> <PUBCHEM_TOTAL_CHARGE>
0

> <PUBCHEM_HEAVY_ATOM_COUNT>
30

> <PUBCHEM_ATOM_DEF_STEREO_COUNT>
0

> <PUBCHEM_ATOM_UDEF_STEREO_COUNT>
0

> <PUBCHEM_BOND_DEF_STEREO_COUNT>
0

> <PUBCHEM_BOND_UDEF_STEREO_COUNT>
0

> <PUBCHEM_ISOTOPIC_ATOM_COUNT>
0

> <PUBCHEM_COMPONENT_COUNT>
1

> <PUBCHEM_CACTVS_TAUTO_COUNT>
-1

> <PUBCHEM_COORDINATE_TYPE>
1
5
255

> <PUBCHEM_BONDANNOTATIONS>
1  26  8
1  6  8
10  12  8
12  22  8
21  23  8
22  23  8
24  25  8
25  26  8
25  27  8
26  28  8
27  29  8
28  30  8
29  30  8
6  24  8
9  10  8
9  21  8

$$$$
