44378024
  -OEChem-09292322192D

 55 59  0     1  0  0  0  0  0999 V2000
    5.3516   -5.4411    0.0000 O   0  0  0  0  0  0  0  0  0  0  0  0
    5.0066    2.8488    0.0000 O   0  0  0  0  0  0  0  0  0  0  0  0
    5.3498   -3.3702    0.0000 N   0  0  3  0  0  0  0  0  0  0  0  0
    4.0200   -0.6191    0.0000 N   0  0  3  0  0  0  0  0  0  0  0  0
    5.0000    4.5809    0.0000 N   0  0  0  0  0  0  0  0  0  0  0  0
    5.0408   -2.4191    0.0000 C   0  0  2  0  0  0  0  0  0  0  0  0
    4.0408   -2.4191    0.0000 C   0  0  1  0  0  0  0  0  0  0  0  0
    5.5755   -1.5252    0.0000 C   0  0  0  0  0  0  0  0  0  0  0  0
    3.5062   -1.5252    0.0000 C   0  0  0  0  0  0  0  0  0  0  0  0
    3.7318   -3.3702    0.0000 C   0  0  0  0  0  0  0  0  0  0  0  0
    4.5408   -3.9580    0.0000 C   0  0  0  0  0  0  0  0  0  0  0  0
    5.0616   -0.6191    0.0000 C   0  0  0  0  0  0  0  0  0  0  0  0
    6.2061   -3.9012    0.0000 C   0  0  0  0  0  0  0  0  0  0  0  0
    4.4479   -4.9954    0.0000 C   0  0  0  0  0  0  0  0  0  0  0  0
    3.5167    0.2450    0.0000 C   0  0  0  0  0  0  0  0  0  0  0  0
    2.7738   -3.7791    0.0000 C   0  0  0  0  0  0  0  0  0  0  0  0
    6.2070   -4.9087    0.0000 C   0  0  0  0  0  0  0  0  0  0  0  0
    4.0133    1.1129    0.0000 C   0  0  0  0  0  0  0  0  0  0  0  0
    3.4996   -5.4264    0.0000 C   0  0  0  0  0  0  0  0  0  0  0  0
    2.6570   -4.8142    0.0000 C   0  0  0  0  0  0  0  0  0  0  0  0
    3.5100    1.9770    0.0000 C   0  0  0  0  0  0  0  0  0  0  0  0
    4.0067    2.8450    0.0000 C   0  0  0  0  0  0  0  0  0  0  0  0
    3.5033    3.7091    0.0000 C   0  0  0  0  0  0  0  0  0  0  0  0
    4.0000    4.5770    0.0000 C   0  0  0  0  0  0  0  0  0  0  0  0
    2.5033    3.7052    0.0000 C   0  0  0  0  0  0  0  0  0  0  0  0
    3.4966    5.4411    0.0000 C   0  0  0  0  0  0  0  0  0  0  0  0
    2.0000    4.5693    0.0000 C   0  0  0  0  0  0  0  0  0  0  0  0
    2.4967    5.4372    0.0000 C   0  0  0  0  0  0  0  0  0  0  0  0
    5.8855   -2.5145    0.0000 H   0  0  0  0  0  0  0  0  0  0  0  0
    3.1962   -2.5145    0.0000 H   0  0  0  0  0  0  0  0  0  0  0  0
    6.0453   -1.9298    0.0000 H   0  0  0  0  0  0  0  0  0  0  0  0
    6.0545   -1.1316    0.0000 H   0  0  0  0  0  0  0  0  0  0  0  0
    3.0271   -1.1316    0.0000 H   0  0  0  0  0  0  0  0  0  0  0  0
    3.0364   -1.9298    0.0000 H   0  0  0  0  0  0  0  0  0  0  0  0
    5.6453   -0.4100    0.0000 H   0  0  0  0  0  0  0  0  0  0  0  0
    4.9556   -0.0082    0.0000 H   0  0  0  0  0  0  0  0  0  0  0  0
    6.8156   -4.0149    0.0000 H   0  0  0  0  0  0  0  0  0  0  0  0
    6.4302   -3.3230    0.0000 H   0  0  0  0  0  0  0  0  0  0  0  0
    3.0402    0.6417    0.0000 H   0  0  0  0  0  0  0  0  0  0  0  0
    3.0433   -0.1554    0.0000 H   0  0  0  0  0  0  0  0  0  0  0  0
    2.2765   -3.4089    0.0000 H   0  0  0  0  0  0  0  0  0  0  0  0
    6.4320   -5.4864    0.0000 H   0  0  0  0  0  0  0  0  0  0  0  0
    6.8163   -4.7940    0.0000 H   0  0  0  0  0  0  0  0  0  0  0  0
    4.4898    0.7162    0.0000 H   0  0  0  0  0  0  0  0  0  0  0  0
    4.4868    1.5133    0.0000 H   0  0  0  0  0  0  0  0  0  0  0  0
    3.4372   -6.0433    0.0000 H   0  0  0  0  0  0  0  0  0  0  0  0
    2.0896   -5.0642    0.0000 H   0  0  0  0  0  0  0  0  0  0  0  0
    3.0335    2.3737    0.0000 H   0  0  0  0  0  0  0  0  0  0  0  0
    3.0366    1.5767    0.0000 H   0  0  0  0  0  0  0  0  0  0  0  0
    2.1954    3.1671    0.0000 H   0  0  0  0  0  0  0  0  0  0  0  0
    3.8046    5.9792    0.0000 H   0  0  0  0  0  0  0  0  0  0  0  0
    1.3800    4.5669    0.0000 H   0  0  0  0  0  0  0  0  0  0  0  0
    2.1846    5.9730    0.0000 H   0  0  0  0  0  0  0  0  0  0  0  0
    5.3079    5.1190    0.0000 H   0  0  0  0  0  0  0  0  0  0  0  0
    5.3120    4.0451    0.0000 H   0  0  0  0  0  0  0  0  0  0  0  0
  1 14  1  0  0  0  0
  1 17  1  0  0  0  0
  2 22  2  0  0  0  0
  3  6  1  0  0  0  0
  3 11  1  0  0  0  0
  3 13  1  0  0  0  0
  4  9  1  0  0  0  0
  4 12  1  0  0  0  0
  4 15  1  0  0  0  0
  5 24  1  0  0  0  0
  5 54  1  0  0  0  0
  5 55  1  0  0  0  0
  6  7  1  0  0  0  0
  6  8  1  0  0  0  0
  6 29  1  1  0  0  0
  7  9  1  0  0  0  0
  7 10  1  0  0  0  0
  7 30  1  1  0  0  0
  8 12  1  0  0  0  0
  8 31  1  0  0  0  0
  8 32  1  0  0  0  0
  9 33  1  0  0  0  0
  9 34  1  0  0  0  0
 10 11  2  0  0  0  0
 10 16  1  0  0  0  0
 11 14  1  0  0  0  0
 12 35  1  0  0  0  0
 12 36  1  0  0  0  0
 13 17  1  0  0  0  0
 13 37  1  0  0  0  0
 13 38  1  0  0  0  0
 14 19  2  0  0  0  0
 15 18  1  0  0  0  0
 15 39  1  0  0  0  0
 15 40  1  0  0  0  0
 16 20  2  0  0  0  0
 16 41  1  0  0  0  0
 17 42  1  0  0  0  0
 17 43  1  0  0  0  0
 18 21  1  0  0  0  0
 18 44  1  0  0  0  0
 18 45  1  0  0  0  0
 19 20  1  0  0  0  0
 19 46  1  0  0  0  0
 20 47  1  0  0  0  0
 21 22  1  0  0  0  0
 21 48  1  0  0  0  0
 21 49  1  0  0  0  0
 22 23  1  0  0  0  0
 23 24  1  0  0  0  0
 23 25  2  0  0  0  0
 24 26  2  0  0  0  0
 25 27  1  0  0  0  0
 25 50  1  0  0  0  0
 26 28  1  0  0  0  0
 26 51  1  0  0  0  0
 27 28  2  0  0  0  0
 27 52  1  0  0  0  0
 28 53  1  0  0  0  0
M  END
> <PUBCHEM_COMPOUND_CID>
44378024

> <PUBCHEM_COMPOUND_CANONICALIZED>
1

> <PUBCHEM_CACTVS_COMPLEXITY>
570

> <PUBCHEM_CACTVS_HBOND_ACCEPTOR>
5

> <PUBCHEM_CACTVS_HBOND_DONOR>
1

> <PUBCHEM_CACTVS_ROTATABLE_BOND>
5

> <PUBCHEM_CACTVS_SUBSKEYS>
AAADceB7MAAAAAAAAAAAAAAAAAAAAWAAAAA8eIEAAAAAAFixQAAAHgAQAAAADSzhmAYwxoNABACIAqRSQACCCAAlIgAIiAEPbMgOJjrE9ZuHOajk0BHY6cec2POOgAABAAACEAAAAAIAAAQgAAAAAAAAAA==

> <PUBCHEM_IUPAC_OPENEYE_NAME>
1-(2-aminophenyl)-4-[(10R,15S)-4-oxa-1,12-diazatetracyclo[7.6.1.05,16.010,15]hexadeca-5,7,9(16)-trien-12-yl]butan-1-one

> <PUBCHEM_IUPAC_CAS_NAME>
1-(2-aminophenyl)-4-[(10R,15S)-4-oxa-1,12-diazatetracyclo[7.6.1.05,16.010,15]hexadeca-5,7,9(16)-trien-12-yl]-1-butanone

> <PUBCHEM_IUPAC_NAME_MARKUP>
1-(2-aminophenyl)-4-[(10<I>R</I>,15<I>S</I>)-4-oxa-1,12-diazatetracyclo[7.6.1.0<SUP>5,16</SUP>.0<SUP>10,15</SUP>]hexadeca-5,7,9(16)-trien-12-yl]butan-1-one

> <PUBCHEM_IUPAC_NAME>
1-(2-aminophenyl)-4-[(10R,15S)-4-oxa-1,12-diazatetracyclo[7.6.1.05,16.010,15]hexadeca-5,7,9(16)-trien-12-yl]butan-1-one

> <PUBCHEM_IUPAC_SYSTEMATIC_NAME>
1-(2-aminophenyl)-4-[(10R,15S)-4-oxa-1,12-diazatetracyclo[7.6.1.05,16.010,15]hexadeca-5,7,9(16)-trien-12-yl]butan-1-one

> <PUBCHEM_IUPAC_TRADITIONAL_NAME>
1-(2-aminophenyl)-4-[(10R,15S)-4-oxa-1,12-diazatetracyclo[7.6.1.05,16.010,15]hexadeca-5,7,9(16)-trien-12-yl]butan-1-one

> <PUBCHEM_IUPAC_INCHI>
InChI=1S/C23H27N3O2/c24-19-7-2-1-5-17(19)21(27)8-4-11-25-12-10-20-18(15-25)16-6-3-9-22-23(16)26(20)13-14-28-22/h1-3,5-7,9,18,20H,4,8,10-15,24H2/t18-,20-/m0/s1

> <PUBCHEM_IUPAC_INCHIKEY>
LCGBVEYGRZPQEM-ICSRJNTNSA-N

> <PUBCHEM_XLOGP3_AA>
3.4

> <PUBCHEM_EXACT_MASS>
377.21032711

> <PUBCHEM_MOLECULAR_FORMULA>
C23H27N3O2

> <PUBCHEM_MOLECULAR_WEIGHT>
377.5

> <PUBCHEM_OPENEYE_CAN_SMILES>
C1CN(CC2C1N3CCOC4=CC=CC2=C43)CCCC(=O)C5=CC=CC=C5N

> <PUBCHEM_OPENEYE_ISO_SMILES>
C1CN(C[C@@H]2[C@H]1N3CCOC4=CC=CC2=C43)CCCC(=O)C5=CC=CC=C5N

> <PUBCHEM_CACTVS_TPSA>
58.8

> <PUBCHEM_MONOISOTOPIC_WEIGHT>
377.21032711

> <PUBCHEM_TOTAL_CHARGE>
0

> <PUBCHEM_HEAVY_ATOM_COUNT>
28

> <PUBCHEM_ATOM_DEF_STEREO_COUNT>
2

> <PUBCHEM_ATOM_UDEF_STEREO_COUNT>
0

> <PUBCHEM_BOND_DEF_STEREO_COUNT>
0

> <PUBCHEM_BOND_UDEF_STEREO_COUNT>
0

> <PUBCHEM_ISOTOPIC_ATOM_COUNT>
0

> <PUBCHEM_COMPONENT_COUNT>
1

> <PUBCHEM_CACTVS_TAUTO_COUNT>
-1

> <PUBCHEM_COORDINATE_TYPE>
1
5
255

> <PUBCHEM_BONDANNOTATIONS>
10  11  8
10  16  8
11  14  8
14  19  8
16  20  8
19  20  8
23  24  8
23  25  8
24  26  8
25  27  8
26  28  8
27  28  8
6  29  5
7  30  5

$$$$
