45260670
  -OEChem-09292322192D

 49 51  0     1  0  0  0  0  0999 V2000
    4.6974    0.0000    0.0000 Cl  0  0  0  0  0  0  0  0  0  0  0  0
   10.3949    8.4862    0.0000 F   0  0  0  0  0  0  0  0  0  0  0  0
    6.2078    4.8260    0.0000 O   0  0  0  0  0  0  0  0  0  0  0  0
    5.8988    7.3951    0.0000 O   0  0  0  0  0  0  0  0  0  0  0  0
    3.6200    5.6350    0.0000 N   0  0  0  0  0  0  0  0  0  0  0  0
    5.6200    5.6350    0.0000 C   0  0  0  0  0  0  0  0  0  0  0  0
    5.1200    4.7690    0.0000 C   0  0  0  0  0  0  0  0  0  0  0  0
    5.1200    6.5010    0.0000 C   0  0  0  0  0  0  0  0  0  0  0  0
    6.2078    6.4440    0.0000 C   0  0  0  0  0  0  0  0  0  0  0  0
    7.1588    6.1350    0.0000 C   0  0  3  0  0  0  0  0  0  0  0  0
    4.1200    4.7690    0.0000 C   0  0  0  0  0  0  0  0  0  0  0  0
    4.1200    6.5010    0.0000 C   0  0  0  0  0  0  0  0  0  0  0  0
    7.1588    5.1350    0.0000 C   0  0  0  0  0  0  0  0  0  0  0  0
    2.6200    5.6350    0.0000 C   0  0  0  0  0  0  0  0  0  0  0  0
    7.9679    6.7228    0.0000 C   0  0  0  0  0  0  0  0  0  0  0  0
    2.1200    4.7690    0.0000 C   0  0  0  0  0  0  0  0  0  0  0  0
    7.8633    7.7173    0.0000 C   0  0  0  0  0  0  0  0  0  0  0  0
    8.8814    6.3161    0.0000 C   0  0  0  0  0  0  0  0  0  0  0  0
    2.6200    3.9030    0.0000 C   0  0  0  0  0  0  0  0  0  0  0  0
    1.1200    4.7690    0.0000 C   0  0  0  0  0  0  0  0  0  0  0  0
    8.6724    8.3051    0.0000 C   0  0  0  0  0  0  0  0  0  0  0  0
    9.6904    6.9038    0.0000 C   0  0  0  0  0  0  0  0  0  0  0  0
    9.5859    7.8984    0.0000 C   0  0  0  0  0  0  0  0  0  0  0  0
    2.1200    3.0369    0.0000 C   0  0  0  0  0  0  0  0  0  0  0  0
    0.6200    3.9030    0.0000 C   0  0  0  0  0  0  0  0  0  0  0  0
    1.1200    3.0369    0.0000 C   0  0  0  0  0  0  0  0  0  0  0  0
    5.0123    4.1584    0.0000 H   0  0  0  0  0  0  0  0  0  0  0  0
    5.7026    4.5569    0.0000 H   0  0  0  0  0  0  0  0  0  0  0  0
    5.7026    6.7131    0.0000 H   0  0  0  0  0  0  0  0  0  0  0  0
    5.0123    7.1116    0.0000 H   0  0  0  0  0  0  0  0  0  0  0  0
    7.7113    5.8535    0.0000 H   0  0  0  0  0  0  0  0  0  0  0  0
    3.5374    4.5569    0.0000 H   0  0  0  0  0  0  0  0  0  0  0  0
    4.2277    4.1584    0.0000 H   0  0  0  0  0  0  0  0  0  0  0  0
    4.2277    7.1116    0.0000 H   0  0  0  0  0  0  0  0  0  0  0  0
    3.5374    6.7131    0.0000 H   0  0  0  0  0  0  0  0  0  0  0  0
    7.2878    4.5286    0.0000 H   0  0  0  0  0  0  0  0  0  0  0  0
    7.7754    5.1998    0.0000 H   0  0  0  0  0  0  0  0  0  0  0  0
    2.7277    6.2456    0.0000 H   0  0  0  0  0  0  0  0  0  0  0  0
    2.0374    5.8471    0.0000 H   0  0  0  0  0  0  0  0  0  0  0  0
    7.2969    7.9695    0.0000 H   0  0  0  0  0  0  0  0  0  0  0  0
    8.9462    5.6995    0.0000 H   0  0  0  0  0  0  0  0  0  0  0  0
    3.2400    3.9030    0.0000 H   0  0  0  0  0  0  0  0  0  0  0  0
    0.8100    5.3059    0.0000 H   0  0  0  0  0  0  0  0  0  0  0  0
    8.6075    8.9217    0.0000 H   0  0  0  0  0  0  0  0  0  0  0  0
   10.2568    6.6517    0.0000 H   0  0  0  0  0  0  0  0  0  0  0  0
    2.4300    2.5000    0.0000 H   0  0  0  0  0  0  0  0  0  0  0  0
    0.0000    3.9030    0.0000 H   0  0  0  0  0  0  0  0  0  0  0  0
    0.8100    2.5000    0.0000 H   0  0  0  0  0  0  0  0  0  0  0  0
    5.6974    0.0000    0.0000 H   0  0  0  0  0  0  0  0  0  0  0  0
  1 49  1  0  0  0  0
  2 23  1  0  0  0  0
  3  6  1  0  0  0  0
  3 13  1  0  0  0  0
  4  9  2  0  0  0  0
  5 11  1  0  0  0  0
  5 12  1  0  0  0  0
  5 14  1  0  0  0  0
  6  7  1  0  0  0  0
  6  8  1  0  0  0  0
  6  9  1  0  0  0  0
  7 11  1  0  0  0  0
  7 27  1  0  0  0  0
  7 28  1  0  0  0  0
  8 12  1  0  0  0  0
  8 29  1  0  0  0  0
  8 30  1  0  0  0  0
  9 10  1  0  0  0  0
 10 13  1  0  0  0  0
 10 15  1  0  0  0  0
 10 31  1  0  0  0  0
 11 32  1  0  0  0  0
 11 33  1  0  0  0  0
 12 34  1  0  0  0  0
 12 35  1  0  0  0  0
 13 36  1  0  0  0  0
 13 37  1  0  0  0  0
 14 16  1  0  0  0  0
 14 38  1  0  0  0  0
 14 39  1  0  0  0  0
 15 17  2  0  0  0  0
 15 18  1  0  0  0  0
 16 19  2  0  0  0  0
 16 20  1  0  0  0  0
 17 21  1  0  0  0  0
 17 40  1  0  0  0  0
 18 22  2  0  0  0  0
 18 41  1  0  0  0  0
 19 24  1  0  0  0  0
 19 42  1  0  0  0  0
 20 25  2  0  0  0  0
 20 43  1  0  0  0  0
 21 23  2  0  0  0  0
 21 44  1  0  0  0  0
 22 23  1  0  0  0  0
 22 45  1  0  0  0  0
 24 26  2  0  0  0  0
 24 46  1  0  0  0  0
 25 26  1  0  0  0  0
 25 47  1  0  0  0  0
 26 48  1  0  0  0  0
M  END
> <PUBCHEM_COMPOUND_CID>
45260670

> <PUBCHEM_COMPOUND_CANONICALIZED>
1

> <PUBCHEM_CACTVS_COMPLEXITY>
461

> <PUBCHEM_CACTVS_HBOND_ACCEPTOR>
4

> <PUBCHEM_CACTVS_HBOND_DONOR>
1

> <PUBCHEM_CACTVS_ROTATABLE_BOND>
3

> <PUBCHEM_CACTVS_SUBSKEYS>
AAADceB6MQAEAAAAAAAAAAAAAAAAASAAAAA8YIAAAAAAAAABQAAAHwAAAAAADUThmA4wAIMABACIAqBSAAKCAAAgAAAIiAFIBIgIIDaAlRWGIAhm4AGIiAecyOCOgAAAAAAAAAAAAAAAAAAAAAAAAAAAAA==

> <PUBCHEM_IUPAC_OPENEYE_NAME>
8-benzyl-3-(4-fluorophenyl)-1-oxa-8-azaspiro[4.5]decan-4-one;hydrochloride

> <PUBCHEM_IUPAC_CAS_NAME>
3-(4-fluorophenyl)-8-(phenylmethyl)-1-oxa-8-azaspiro[4.5]decan-4-one;hydrochloride

> <PUBCHEM_IUPAC_NAME_MARKUP>
8-benzyl-3-(4-fluorophenyl)-1-oxa-8-azaspiro[4.5]decan-4-one;hydrochloride

> <PUBCHEM_IUPAC_NAME>
8-benzyl-3-(4-fluorophenyl)-1-oxa-8-azaspiro[4.5]decan-4-one;hydrochloride

> <PUBCHEM_IUPAC_SYSTEMATIC_NAME>
3-(4-fluorophenyl)-8-(phenylmethyl)-1-oxa-8-azaspiro[4.5]decan-4-one;hydrochloride

> <PUBCHEM_IUPAC_TRADITIONAL_NAME>
8-benzyl-3-(4-fluorophenyl)-1-oxa-8-azaspiro[4.5]decan-4-one;hydrochloride

> <PUBCHEM_IUPAC_INCHI>
InChI=1S/C21H22FNO2.ClH/c22-18-8-6-17(7-9-18)19-15-25-21(20(19)24)10-12-23(13-11-21)14-16-4-2-1-3-5-16;/h1-9,19H,10-15H2;1H

> <PUBCHEM_IUPAC_INCHIKEY>
UDLWYCIZXBWYCT-UHFFFAOYSA-N

> <PUBCHEM_EXACT_MASS>
375.1401348

> <PUBCHEM_MOLECULAR_FORMULA>
C21H23ClFNO2

> <PUBCHEM_MOLECULAR_WEIGHT>
375.9

> <PUBCHEM_OPENEYE_CAN_SMILES>
C1CN(CCC12C(=O)C(CO2)C3=CC=C(C=C3)F)CC4=CC=CC=C4.Cl

> <PUBCHEM_OPENEYE_ISO_SMILES>
C1CN(CCC12C(=O)C(CO2)C3=CC=C(C=C3)F)CC4=CC=CC=C4.Cl

> <PUBCHEM_CACTVS_TPSA>
29.5

> <PUBCHEM_MONOISOTOPIC_WEIGHT>
375.1401348

> <PUBCHEM_TOTAL_CHARGE>
0

> <PUBCHEM_HEAVY_ATOM_COUNT>
26

> <PUBCHEM_ATOM_DEF_STEREO_COUNT>
0

> <PUBCHEM_ATOM_UDEF_STEREO_COUNT>
1

> <PUBCHEM_BOND_DEF_STEREO_COUNT>
0

> <PUBCHEM_BOND_UDEF_STEREO_COUNT>
0

> <PUBCHEM_ISOTOPIC_ATOM_COUNT>
0

> <PUBCHEM_COMPONENT_COUNT>
2

> <PUBCHEM_CACTVS_TAUTO_COUNT>
-1

> <PUBCHEM_COORDINATE_TYPE>
1
5
255

> <PUBCHEM_BONDANNOTATIONS>
10  15  3
15  17  8
15  18  8
16  19  8
16  20  8
17  21  8
18  22  8
19  24  8
20  25  8
21  23  8
22  23  8
24  26  8
25  26  8

$$$$
