11176199
  -OEChem-09292322042D

 53 57  0     0  0  0  0  0  0999 V2000
    2.0000   -5.7378    0.0000 O   0  0  0  0  0  0  0  0  0  0  0  0
    4.5640    0.7031    0.0000 N   0  0  0  0  0  0  0  0  0  0  0  0
    4.5640    2.7031    0.0000 N   0  0  0  0  0  0  0  0  0  0  0  0
    3.4887   -4.7687    0.0000 N   0  0  0  0  0  0  0  0  0  0  0  0
    5.4300    1.2031    0.0000 C   0  0  0  0  0  0  0  0  0  0  0  0
    3.6979    1.2031    0.0000 C   0  0  0  0  0  0  0  0  0  0  0  0
    5.4300    2.2031    0.0000 C   0  0  0  0  0  0  0  0  0  0  0  0
    3.6979    2.2031    0.0000 C   0  0  0  0  0  0  0  0  0  0  0  0
    4.5640   -0.2969    0.0000 C   0  0  0  0  0  0  0  0  0  0  0  0
    3.6979   -0.7969    0.0000 C   0  0  0  0  0  0  0  0  0  0  0  0
    4.5640    3.7031    0.0000 C   0  0  0  0  0  0  0  0  0  0  0  0
    3.6979   -1.7969    0.0000 C   0  0  0  0  0  0  0  0  0  0  0  0
    5.4300    4.2031    0.0000 C   0  0  0  0  0  0  0  0  0  0  0  0
    3.6979    4.2031    0.0000 C   0  0  0  0  0  0  0  0  0  0  0  0
    2.8319   -3.2969    0.0000 C   0  0  0  0  0  0  0  0  0  0  0  0
    2.8319   -2.2969    0.0000 C   0  0  0  0  0  0  0  0  0  0  0  0
    5.4300    5.2031    0.0000 C   0  0  0  0  0  0  0  0  0  0  0  0
    4.5640   -2.2969    0.0000 C   0  0  0  0  0  0  0  0  0  0  0  0
    3.6979   -3.7969    0.0000 C   0  0  0  0  0  0  0  0  0  0  0  0
    2.0949   -3.9640    0.0000 C   0  0  0  0  0  0  0  0  0  0  0  0
    4.5640   -3.2969    0.0000 C   0  0  0  0  0  0  0  0  0  0  0  0
    6.3239    3.6685    0.0000 C   0  0  0  0  0  0  0  0  0  0  0  0
    3.6979    5.2031    0.0000 C   0  0  0  0  0  0  0  0  0  0  0  0
    4.5640    5.7031    0.0000 C   0  0  0  0  0  0  0  0  0  0  0  0
    2.5000   -4.8717    0.0000 C   0  0  0  0  0  0  0  0  0  0  0  0
    6.3239    5.7378    0.0000 C   0  0  0  0  0  0  0  0  0  0  0  0
    7.2300    4.1823    0.0000 C   0  0  0  0  0  0  0  0  0  0  0  0
    7.2300    5.2239    0.0000 C   0  0  0  0  0  0  0  0  0  0  0  0
    5.6420    0.6205    0.0000 H   0  0  0  0  0  0  0  0  0  0  0  0
    6.0406    1.3108    0.0000 H   0  0  0  0  0  0  0  0  0  0  0  0
    3.0873    1.3108    0.0000 H   0  0  0  0  0  0  0  0  0  0  0  0
    3.4859    0.6205    0.0000 H   0  0  0  0  0  0  0  0  0  0  0  0
    6.0406    2.0955    0.0000 H   0  0  0  0  0  0  0  0  0  0  0  0
    5.6420    2.7857    0.0000 H   0  0  0  0  0  0  0  0  0  0  0  0
    3.4859    2.7857    0.0000 H   0  0  0  0  0  0  0  0  0  0  0  0
    3.0873    2.0955    0.0000 H   0  0  0  0  0  0  0  0  0  0  0  0
    4.7760   -0.8795    0.0000 H   0  0  0  0  0  0  0  0  0  0  0  0
    5.1745   -0.1892    0.0000 H   0  0  0  0  0  0  0  0  0  0  0  0
    3.4859   -0.2143    0.0000 H   0  0  0  0  0  0  0  0  0  0  0  0
    3.0873   -0.9045    0.0000 H   0  0  0  0  0  0  0  0  0  0  0  0
    3.1610    3.8931    0.0000 H   0  0  0  0  0  0  0  0  0  0  0  0
    2.2950   -1.9869    0.0000 H   0  0  0  0  0  0  0  0  0  0  0  0
    5.1009   -1.9869    0.0000 H   0  0  0  0  0  0  0  0  0  0  0  0
    1.7294   -3.4631    0.0000 H   0  0  0  0  0  0  0  0  0  0  0  0
    1.5584   -4.2747    0.0000 H   0  0  0  0  0  0  0  0  0  0  0  0
    5.1009   -3.6069    0.0000 H   0  0  0  0  0  0  0  0  0  0  0  0
    6.3168    3.0485    0.0000 H   0  0  0  0  0  0  0  0  0  0  0  0
    3.1610    5.5131    0.0000 H   0  0  0  0  0  0  0  0  0  0  0  0
    4.5640    6.3231    0.0000 H   0  0  0  0  0  0  0  0  0  0  0  0
    3.9028   -5.2302    0.0000 H   0  0  0  0  0  0  0  0  0  0  0  0
    6.3168    6.3577    0.0000 H   0  0  0  0  0  0  0  0  0  0  0  0
    7.7657    3.8702    0.0000 H   0  0  0  0  0  0  0  0  0  0  0  0
    7.7657    5.5360    0.0000 H   0  0  0  0  0  0  0  0  0  0  0  0
  1 25  2  0  0  0  0
  2  5  1  0  0  0  0
  2  6  1  0  0  0  0
  2  9  1  0  0  0  0
  3  7  1  0  0  0  0
  3  8  1  0  0  0  0
  3 11  1  0  0  0  0
  4 19  1  0  0  0  0
  4 25  1  0  0  0  0
  4 50  1  0  0  0  0
  5  7  1  0  0  0  0
  5 29  1  0  0  0  0
  5 30  1  0  0  0  0
  6  8  1  0  0  0  0
  6 31  1  0  0  0  0
  6 32  1  0  0  0  0
  7 33  1  0  0  0  0
  7 34  1  0  0  0  0
  8 35  1  0  0  0  0
  8 36  1  0  0  0  0
  9 10  1  0  0  0  0
  9 37  1  0  0  0  0
  9 38  1  0  0  0  0
 10 12  1  0  0  0  0
 10 39  1  0  0  0  0
 10 40  1  0  0  0  0
 11 13  1  0  0  0  0
 11 14  2  0  0  0  0
 12 16  2  0  0  0  0
 12 18  1  0  0  0  0
 13 17  1  0  0  0  0
 13 22  2  0  0  0  0
 14 23  1  0  0  0  0
 14 41  1  0  0  0  0
 15 16  1  0  0  0  0
 15 19  2  0  0  0  0
 15 20  1  0  0  0  0
 16 42  1  0  0  0  0
 17 24  1  0  0  0  0
 17 26  2  0  0  0  0
 18 21  2  0  0  0  0
 18 43  1  0  0  0  0
 19 21  1  0  0  0  0
 20 25  1  0  0  0  0
 20 44  1  0  0  0  0
 20 45  1  0  0  0  0
 21 46  1  0  0  0  0
 22 27  1  0  0  0  0
 22 47  1  0  0  0  0
 23 24  2  0  0  0  0
 23 48  1  0  0  0  0
 24 49  1  0  0  0  0
 26 28  1  0  0  0  0
 26 51  1  0  0  0  0
 27 28  2  0  0  0  0
 27 52  1  0  0  0  0
 28 53  1  0  0  0  0
M  END
> <PUBCHEM_COMPOUND_CID>
11176199

> <PUBCHEM_COMPOUND_CANONICALIZED>
1

> <PUBCHEM_CACTVS_COMPLEXITY>
544

> <PUBCHEM_CACTVS_HBOND_ACCEPTOR>
3

> <PUBCHEM_CACTVS_HBOND_DONOR>
1

> <PUBCHEM_CACTVS_ROTATABLE_BOND>
4

> <PUBCHEM_CACTVS_SUBSKEYS>
AAADceB7IAAAAAAAAAAAAAAAAAAAAWAAAAA8YMEAAAAAAFjBVAAAHgAQAAAADAjBmAQwwMPAAACIAiVSUACCAAAhAgAIiAEIZIgIYDLAlZGUIAhglADIyAcciMCOiAACQAASAAAQAASAACQAAAAAAAAAAA==

> <PUBCHEM_IUPAC_OPENEYE_NAME>
5-[2-[4-(1-naphthyl)piperazin-1-yl]ethyl]indolin-2-one

> <PUBCHEM_IUPAC_CAS_NAME>
5-[2-[4-(1-naphthalenyl)-1-piperazinyl]ethyl]-1,3-dihydroindol-2-one

> <PUBCHEM_IUPAC_NAME_MARKUP>
5-[2-(4-naphthalen-1-ylpiperazin-1-yl)ethyl]-1,3-dihydroindol-2-one

> <PUBCHEM_IUPAC_NAME>
5-[2-(4-naphthalen-1-ylpiperazin-1-yl)ethyl]-1,3-dihydroindol-2-one

> <PUBCHEM_IUPAC_SYSTEMATIC_NAME>
5-[2-(4-naphthalen-1-ylpiperazin-1-yl)ethyl]-1,3-dihydroindol-2-one

> <PUBCHEM_IUPAC_TRADITIONAL_NAME>
5-[2-[4-(1-naphthyl)piperazino]ethyl]oxindole

> <PUBCHEM_IUPAC_INCHI>
InChI=1S/C24H25N3O/c28-24-17-20-16-18(8-9-22(20)25-24)10-11-26-12-14-27(15-13-26)23-7-3-5-19-4-1-2-6-21(19)23/h1-9,16H,10-15,17H2,(H,25,28)

> <PUBCHEM_IUPAC_INCHIKEY>
GEJKYGSJUJTWOZ-UHFFFAOYSA-N

> <PUBCHEM_XLOGP3_AA>
3.9

> <PUBCHEM_EXACT_MASS>
371.199762429

> <PUBCHEM_MOLECULAR_FORMULA>
C24H25N3O

> <PUBCHEM_MOLECULAR_WEIGHT>
371.5

> <PUBCHEM_OPENEYE_CAN_SMILES>
C1CN(CCN1CCC2=CC3=C(C=C2)NC(=O)C3)C4=CC=CC5=CC=CC=C54

> <PUBCHEM_OPENEYE_ISO_SMILES>
C1CN(CCN1CCC2=CC3=C(C=C2)NC(=O)C3)C4=CC=CC5=CC=CC=C54

> <PUBCHEM_CACTVS_TPSA>
35.6

> <PUBCHEM_MONOISOTOPIC_WEIGHT>
371.199762429

> <PUBCHEM_TOTAL_CHARGE>
0

> <PUBCHEM_HEAVY_ATOM_COUNT>
28

> <PUBCHEM_ATOM_DEF_STEREO_COUNT>
0

> <PUBCHEM_ATOM_UDEF_STEREO_COUNT>
0

> <PUBCHEM_BOND_DEF_STEREO_COUNT>
0

> <PUBCHEM_BOND_UDEF_STEREO_COUNT>
0

> <PUBCHEM_ISOTOPIC_ATOM_COUNT>
0

> <PUBCHEM_COMPONENT_COUNT>
1

> <PUBCHEM_CACTVS_TAUTO_COUNT>
-1

> <PUBCHEM_COORDINATE_TYPE>
1
5
255

> <PUBCHEM_BONDANNOTATIONS>
11  13  8
11  14  8
12  16  8
12  18  8
13  17  8
13  22  8
14  23  8
15  16  8
15  19  8
17  24  8
17  26  8
18  21  8
19  21  8
22  27  8
23  24  8
26  28  8
27  28  8

$$$$
