145972382
  -OEChem-09292322052D

 62 66  0     0  0  0  0  0  0999 V2000
    2.0000   -6.1845    0.0000 F   0  0  0  0  0  0  0  0  0  0  0  0
    5.5443   -5.9892    0.0000 O   0  0  0  0  0  0  0  0  0  0  0  0
    9.3653    1.7358    0.0000 O   0  0  0  0  0  0  0  0  0  0  0  0
   11.2758    4.7936    0.0000 O   0  0  0  0  0  0  0  0  0  0  0  0
    6.4763   -1.5282    0.0000 N   0  0  0  0  0  0  0  0  0  0  0  0
   12.9221    4.2555    0.0000 N   0  0  0  0  0  0  0  0  0  0  0  0
    6.1279   -5.1845    0.0000 N   0  0  0  0  0  0  0  0  0  0  0  0
   11.9901    1.4039    0.0000 N   0  0  0  0  0  0  0  0  0  0  0  0
    5.8550   -3.4292    0.0000 C   0  0  0  0  0  0  0  0  0  0  0  0
   13.2328    5.2060    0.0000 C   0  0  0  0  0  0  0  0  0  0  0  0
   13.9771    5.8738    0.0000 C   0  0  0  0  0  0  0  0  0  0  0  0
   13.0266    6.1845    0.0000 C   0  0  0  0  0  0  0  0  0  0  0  0
    5.1871   -2.6850    0.0000 C   0  0  0  0  0  0  0  0  0  0  0  0
    6.8335   -3.2230    0.0000 C   0  0  0  0  0  0  0  0  0  0  0  0
    5.4978   -1.7344    0.0000 C   0  0  0  0  0  0  0  0  0  0  0  0
    7.1441   -2.2725    0.0000 C   0  0  0  0  0  0  0  0  0  0  0  0
    6.7870   -0.5777    0.0000 C   0  0  0  0  0  0  0  0  0  0  0  0
    5.5443   -4.3798    0.0000 C   0  0  0  0  0  0  0  0  0  0  0  0
    7.7654   -0.3715    0.0000 C   0  0  0  0  0  0  0  0  0  0  0  0
    4.5981   -4.6845    0.0000 C   0  0  0  0  0  0  0  0  0  0  0  0
    8.0761    0.5790    0.0000 C   0  0  0  0  0  0  0  0  0  0  0  0
   11.9436    4.0493    0.0000 C   0  0  0  0  0  0  0  0  0  0  0  0
    4.5981   -5.6845    0.0000 C   0  0  0  0  0  0  0  0  0  0  0  0
    9.0546    0.7853    0.0000 C   0  0  0  0  0  0  0  0  0  0  0  0
    3.7320   -4.1845    0.0000 C   0  0  0  0  0  0  0  0  0  0  0  0
   11.6330    3.0987    0.0000 C   0  0  0  0  0  0  0  0  0  0  0  0
    3.7320   -6.1845    0.0000 C   0  0  0  0  0  0  0  0  0  0  0  0
    2.8660   -4.6845    0.0000 C   0  0  0  0  0  0  0  0  0  0  0  0
    2.8660   -5.6845    0.0000 C   0  0  0  0  0  0  0  0  0  0  0  0
   10.6545    2.8925    0.0000 C   0  0  0  0  0  0  0  0  0  0  0  0
   10.3438    1.9420    0.0000 C   0  0  0  0  0  0  0  0  0  0  0  0
   12.3008    2.3544    0.0000 C   0  0  0  0  0  0  0  0  0  0  0  0
   11.0116    1.1977    0.0000 C   0  0  0  0  0  0  0  0  0  0  0  0
    6.2690   -3.8907    0.0000 H   0  0  0  0  0  0  0  0  0  0  0  0
   12.6137    5.2395    0.0000 H   0  0  0  0  0  0  0  0  0  0  0  0
   14.4650    5.4913    0.0000 H   0  0  0  0  0  0  0  0  0  0  0  0
   14.2691    6.4208    0.0000 H   0  0  0  0  0  0  0  0  0  0  0  0
   13.1139    6.7983    0.0000 H   0  0  0  0  0  0  0  0  0  0  0  0
   12.4069    6.1639    0.0000 H   0  0  0  0  0  0  0  0  0  0  0  0
    4.6402   -2.3929    0.0000 H   0  0  0  0  0  0  0  0  0  0  0  0
    4.8046   -3.1729    0.0000 H   0  0  0  0  0  0  0  0  0  0  0  0
    6.8540   -3.8427    0.0000 H   0  0  0  0  0  0  0  0  0  0  0  0
    7.4473   -3.3104    0.0000 H   0  0  0  0  0  0  0  0  0  0  0  0
    5.4772   -1.1148    0.0000 H   0  0  0  0  0  0  0  0  0  0  0  0
    4.8840   -1.6471    0.0000 H   0  0  0  0  0  0  0  0  0  0  0  0
    7.6910   -2.5645    0.0000 H   0  0  0  0  0  0  0  0  0  0  0  0
    7.5267   -1.7846    0.0000 H   0  0  0  0  0  0  0  0  0  0  0  0
    6.7664    0.0420    0.0000 H   0  0  0  0  0  0  0  0  0  0  0  0
    6.1731   -0.4903    0.0000 H   0  0  0  0  0  0  0  0  0  0  0  0
   13.3362    3.7940    0.0000 H   0  0  0  0  0  0  0  0  0  0  0  0
    7.7860   -0.9911    0.0000 H   0  0  0  0  0  0  0  0  0  0  0  0
    8.3793   -0.4588    0.0000 H   0  0  0  0  0  0  0  0  0  0  0  0
    8.0556    1.1987    0.0000 H   0  0  0  0  0  0  0  0  0  0  0  0
    7.4623    0.6664    0.0000 H   0  0  0  0  0  0  0  0  0  0  0  0
    9.0752    0.1656    0.0000 H   0  0  0  0  0  0  0  0  0  0  0  0
    9.6684    0.6979    0.0000 H   0  0  0  0  0  0  0  0  0  0  0  0
    3.7320   -3.5645    0.0000 H   0  0  0  0  0  0  0  0  0  0  0  0
    3.7320   -6.8045    0.0000 H   0  0  0  0  0  0  0  0  0  0  0  0
    2.3291   -4.3745    0.0000 H   0  0  0  0  0  0  0  0  0  0  0  0
   10.2404    3.3540    0.0000 H   0  0  0  0  0  0  0  0  0  0  0  0
   12.9075    2.4823    0.0000 H   0  0  0  0  0  0  0  0  0  0  0  0
   10.8190    0.6084    0.0000 H   0  0  0  0  0  0  0  0  0  0  0  0
  1 29  1  0  0  0  0
  2  7  1  0  0  0  0
  2 23  1  0  0  0  0
  3 24  1  0  0  0  0
  3 31  1  0  0  0  0
  4 22  2  0  0  0  0
  5 15  1  0  0  0  0
  5 16  1  0  0  0  0
  5 17  1  0  0  0  0
  6 10  1  0  0  0  0
  6 22  1  0  0  0  0
  6 50  1  0  0  0  0
  7 18  2  0  0  0  0
  8 32  2  0  0  0  0
  8 33  1  0  0  0  0
  9 13  1  0  0  0  0
  9 14  1  0  0  0  0
  9 18  1  0  0  0  0
  9 34  1  0  0  0  0
 10 11  1  0  0  0  0
 10 12  1  0  0  0  0
 10 35  1  0  0  0  0
 11 12  1  0  0  0  0
 11 36  1  0  0  0  0
 11 37  1  0  0  0  0
 12 38  1  0  0  0  0
 12 39  1  0  0  0  0
 13 15  1  0  0  0  0
 13 40  1  0  0  0  0
 13 41  1  0  0  0  0
 14 16  1  0  0  0  0
 14 42  1  0  0  0  0
 14 43  1  0  0  0  0
 15 44  1  0  0  0  0
 15 45  1  0  0  0  0
 16 46  1  0  0  0  0
 16 47  1  0  0  0  0
 17 19  1  0  0  0  0
 17 48  1  0  0  0  0
 17 49  1  0  0  0  0
 18 20  1  0  0  0  0
 19 21  1  0  0  0  0
 19 51  1  0  0  0  0
 19 52  1  0  0  0  0
 20 23  2  0  0  0  0
 20 25  1  0  0  0  0
 21 24  1  0  0  0  0
 21 53  1  0  0  0  0
 21 54  1  0  0  0  0
 22 26  1  0  0  0  0
 23 27  1  0  0  0  0
 24 55  1  0  0  0  0
 24 56  1  0  0  0  0
 25 28  2  0  0  0  0
 25 57  1  0  0  0  0
 26 30  2  0  0  0  0
 26 32  1  0  0  0  0
 27 29  2  0  0  0  0
 27 58  1  0  0  0  0
 28 29  1  0  0  0  0
 28 59  1  0  0  0  0
 30 31  1  0  0  0  0
 30 60  1  0  0  0  0
 31 33  2  0  0  0  0
 32 61  1  0  0  0  0
 33 62  1  0  0  0  0
M  END
> <PUBCHEM_COMPOUND_CID>
145972382

> <PUBCHEM_COMPOUND_CANONICALIZED>
1

> <PUBCHEM_CACTVS_COMPLEXITY>
643

> <PUBCHEM_CACTVS_HBOND_ACCEPTOR>
7

> <PUBCHEM_CACTVS_HBOND_DONOR>
1

> <PUBCHEM_CACTVS_ROTATABLE_BOND>
9

> <PUBCHEM_CACTVS_SUBSKEYS>
AAADceB7sQAAAAAAAAAAAAAAGAAAAWAAAAA8WIAAAAAAAFgB/AAAHwAUAAAADSzhng48htPYFACpA7V3VgSCiCA1YCAo2KE/TNoOJvrE9ZuHOajm1hnY6ce6yeCOAAAAAAAIAAAAAAAAABAAAAAAAAAAAA==

> <PUBCHEM_IUPAC_OPENEYE_NAME>
N-cyclopropyl-5-[4-[4-(6-fluoro-1,2-benzoxazol-3-yl)-1-piperidyl]butoxy]pyridine-3-carboxamide

> <PUBCHEM_IUPAC_CAS_NAME>
N-cyclopropyl-5-[4-[4-(6-fluoro-1,2-benzoxazol-3-yl)-1-piperidinyl]butoxy]-3-pyridinecarboxamide

> <PUBCHEM_IUPAC_NAME_MARKUP>
<I>N</I>-cyclopropyl-5-[4-[4-(6-fluoro-1,2-benzoxazol-3-yl)piperidin-1-yl]butoxy]pyridine-3-carboxamide

> <PUBCHEM_IUPAC_NAME>
N-cyclopropyl-5-[4-[4-(6-fluoro-1,2-benzoxazol-3-yl)piperidin-1-yl]butoxy]pyridine-3-carboxamide

> <PUBCHEM_IUPAC_SYSTEMATIC_NAME>
N-cyclopropyl-5-[4-[4-(6-fluoranyl-1,2-benzoxazol-3-yl)piperidin-1-yl]butoxy]pyridine-3-carboxamide

> <PUBCHEM_IUPAC_TRADITIONAL_NAME>
N-cyclopropyl-5-[4-[4-(6-fluoroindoxazen-3-yl)piperidino]butoxy]nicotinamide

> <PUBCHEM_IUPAC_INCHI>
InChI=1S/C25H29FN4O3/c26-19-3-6-22-23(14-19)33-29-24(22)17-7-10-30(11-8-17)9-1-2-12-32-21-13-18(15-27-16-21)25(31)28-20-4-5-20/h3,6,13-17,20H,1-2,4-5,7-12H2,(H,28,31)

> <PUBCHEM_IUPAC_INCHIKEY>
QQEZOHBLTCDYDC-UHFFFAOYSA-N

> <PUBCHEM_XLOGP3_AA>
3.6

> <PUBCHEM_EXACT_MASS>
452.22236896

> <PUBCHEM_MOLECULAR_FORMULA>
C25H29FN4O3

> <PUBCHEM_MOLECULAR_WEIGHT>
452.5

> <PUBCHEM_OPENEYE_CAN_SMILES>
C1CC1NC(=O)C2=CC(=CN=C2)OCCCCN3CCC(CC3)C4=NOC5=C4C=CC(=C5)F

> <PUBCHEM_OPENEYE_ISO_SMILES>
C1CC1NC(=O)C2=CC(=CN=C2)OCCCCN3CCC(CC3)C4=NOC5=C4C=CC(=C5)F

> <PUBCHEM_CACTVS_TPSA>
80.5

> <PUBCHEM_MONOISOTOPIC_WEIGHT>
452.22236896

> <PUBCHEM_TOTAL_CHARGE>
0

> <PUBCHEM_HEAVY_ATOM_COUNT>
33

> <PUBCHEM_ATOM_DEF_STEREO_COUNT>
0

> <PUBCHEM_ATOM_UDEF_STEREO_COUNT>
0

> <PUBCHEM_BOND_DEF_STEREO_COUNT>
0

> <PUBCHEM_BOND_UDEF_STEREO_COUNT>
0

> <PUBCHEM_ISOTOPIC_ATOM_COUNT>
0

> <PUBCHEM_COMPONENT_COUNT>
1

> <PUBCHEM_CACTVS_TAUTO_COUNT>
-1

> <PUBCHEM_COORDINATE_TYPE>
1
5
255

> <PUBCHEM_BONDANNOTATIONS>
18  20  8
2  23  8
2  7  8
20  23  8
20  25  8
23  27  8
25  28  8
26  30  8
26  32  8
27  29  8
28  29  8
30  31  8
31  33  8
7  18  8
8  32  8
8  33  8

$$$$
