127047458
  -OEChem-09292322002D

 60 63  0     0  0  0  0  0  0999 V2000
    2.8660   -4.2673    0.0000 O   0  0  0  0  0  0  0  0  0  0  0  0
    7.1962    3.2327    0.0000 O   0  0  0  0  0  0  0  0  0  0  0  0
    5.4641    3.2327    0.0000 O   0  0  0  0  0  0  0  0  0  0  0  0
    4.5981   -1.2673    0.0000 N   0  0  0  0  0  0  0  0  0  0  0  0
    4.5981   -3.2673    0.0000 N   0  0  0  0  0  0  0  0  0  0  0  0
    6.3301    1.7327    0.0000 N   0  0  0  0  0  0  0  0  0  0  0  0
    5.4641   -1.7673    0.0000 C   0  0  0  0  0  0  0  0  0  0  0  0
    3.7320   -1.7673    0.0000 C   0  0  0  0  0  0  0  0  0  0  0  0
    5.4641   -2.7673    0.0000 C   0  0  0  0  0  0  0  0  0  0  0  0
    3.7320   -2.7673    0.0000 C   0  0  0  0  0  0  0  0  0  0  0  0
    4.5981   -0.2673    0.0000 C   0  0  0  0  0  0  0  0  0  0  0  0
    5.4641    0.2327    0.0000 C   0  0  0  0  0  0  0  0  0  0  0  0
    4.5981   -4.2673    0.0000 C   0  0  0  0  0  0  0  0  0  0  0  0
    5.4641    1.2327    0.0000 C   0  0  0  0  0  0  0  0  0  0  0  0
    3.7320   -4.7673    0.0000 C   0  0  0  0  0  0  0  0  0  0  0  0
    5.4641   -4.7673    0.0000 C   0  0  0  0  0  0  0  0  0  0  0  0
    3.7320   -5.7673    0.0000 C   0  0  0  0  0  0  0  0  0  0  0  0
    5.4641   -5.7673    0.0000 C   0  0  0  0  0  0  0  0  0  0  0  0
    4.5981   -6.2673    0.0000 C   0  0  0  0  0  0  0  0  0  0  0  0
    6.3301    2.7327    0.0000 C   0  0  0  0  0  0  0  0  0  0  0  0
    2.0000   -4.7673    0.0000 C   0  0  0  0  0  0  0  0  0  0  0  0
    7.1962    4.2327    0.0000 C   0  0  0  0  0  0  0  0  0  0  0  0
    8.0622    4.7327    0.0000 C   0  0  0  0  0  0  0  0  0  0  0  0
    8.0622    5.7327    0.0000 C   0  0  0  0  0  0  0  0  0  0  0  0
    6.3301    4.7327    0.0000 C   0  0  0  0  0  0  0  0  0  0  0  0
    8.9561    4.1980    0.0000 C   0  0  0  0  0  0  0  0  0  0  0  0
    7.1962    6.2327    0.0000 C   0  0  0  0  0  0  0  0  0  0  0  0
    6.3301    5.7327    0.0000 C   0  0  0  0  0  0  0  0  0  0  0  0
    8.9561    6.2673    0.0000 C   0  0  0  0  0  0  0  0  0  0  0  0
    9.8622    4.7118    0.0000 C   0  0  0  0  0  0  0  0  0  0  0  0
    9.8622    5.7535    0.0000 C   0  0  0  0  0  0  0  0  0  0  0  0
    6.0747   -1.8750    0.0000 H   0  0  0  0  0  0  0  0  0  0  0  0
    5.6762   -1.1847    0.0000 H   0  0  0  0  0  0  0  0  0  0  0  0
    3.5200   -1.1847    0.0000 H   0  0  0  0  0  0  0  0  0  0  0  0
    3.1215   -1.8750    0.0000 H   0  0  0  0  0  0  0  0  0  0  0  0
    5.6762   -3.3499    0.0000 H   0  0  0  0  0  0  0  0  0  0  0  0
    6.0747   -2.6597    0.0000 H   0  0  0  0  0  0  0  0  0  0  0  0
    3.1215   -2.6597    0.0000 H   0  0  0  0  0  0  0  0  0  0  0  0
    3.5200   -3.3499    0.0000 H   0  0  0  0  0  0  0  0  0  0  0  0
    4.3860    0.3153    0.0000 H   0  0  0  0  0  0  0  0  0  0  0  0
    3.9875   -0.3750    0.0000 H   0  0  0  0  0  0  0  0  0  0  0  0
    5.6762   -0.3499    0.0000 H   0  0  0  0  0  0  0  0  0  0  0  0
    6.0747    0.3403    0.0000 H   0  0  0  0  0  0  0  0  0  0  0  0
    5.2520    1.8153    0.0000 H   0  0  0  0  0  0  0  0  0  0  0  0
    4.8535    1.1250    0.0000 H   0  0  0  0  0  0  0  0  0  0  0  0
    6.0010   -4.4573    0.0000 H   0  0  0  0  0  0  0  0  0  0  0  0
    6.8671    1.4227    0.0000 H   0  0  0  0  0  0  0  0  0  0  0  0
    3.1951   -6.0773    0.0000 H   0  0  0  0  0  0  0  0  0  0  0  0
    6.0010   -6.0773    0.0000 H   0  0  0  0  0  0  0  0  0  0  0  0
    4.5981   -6.8873    0.0000 H   0  0  0  0  0  0  0  0  0  0  0  0
    1.6900   -4.2304    0.0000 H   0  0  0  0  0  0  0  0  0  0  0  0
    1.4631   -5.0773    0.0000 H   0  0  0  0  0  0  0  0  0  0  0  0
    2.3100   -5.3043    0.0000 H   0  0  0  0  0  0  0  0  0  0  0  0
    5.7932    4.4227    0.0000 H   0  0  0  0  0  0  0  0  0  0  0  0
    8.9490    3.5780    0.0000 H   0  0  0  0  0  0  0  0  0  0  0  0
    7.1962    6.8527    0.0000 H   0  0  0  0  0  0  0  0  0  0  0  0
    5.7932    6.0427    0.0000 H   0  0  0  0  0  0  0  0  0  0  0  0
    8.9490    6.8873    0.0000 H   0  0  0  0  0  0  0  0  0  0  0  0
   10.3979    4.3998    0.0000 H   0  0  0  0  0  0  0  0  0  0  0  0
   10.3979    6.0656    0.0000 H   0  0  0  0  0  0  0  0  0  0  0  0
  1 15  1  0  0  0  0
  1 21  1  0  0  0  0
  2 20  1  0  0  0  0
  2 22  1  0  0  0  0
  3 20  2  0  0  0  0
  4  7  1  0  0  0  0
  4  8  1  0  0  0  0
  4 11  1  0  0  0  0
  5  9  1  0  0  0  0
  5 10  1  0  0  0  0
  5 13  1  0  0  0  0
  6 14  1  0  0  0  0
  6 20  1  0  0  0  0
  6 47  1  0  0  0  0
  7  9  1  0  0  0  0
  7 32  1  0  0  0  0
  7 33  1  0  0  0  0
  8 10  1  0  0  0  0
  8 34  1  0  0  0  0
  8 35  1  0  0  0  0
  9 36  1  0  0  0  0
  9 37  1  0  0  0  0
 10 38  1  0  0  0  0
 10 39  1  0  0  0  0
 11 12  1  0  0  0  0
 11 40  1  0  0  0  0
 11 41  1  0  0  0  0
 12 14  1  0  0  0  0
 12 42  1  0  0  0  0
 12 43  1  0  0  0  0
 13 15  1  0  0  0  0
 13 16  2  0  0  0  0
 14 44  1  0  0  0  0
 14 45  1  0  0  0  0
 15 17  2  0  0  0  0
 16 18  1  0  0  0  0
 16 46  1  0  0  0  0
 17 19  1  0  0  0  0
 17 48  1  0  0  0  0
 18 19  2  0  0  0  0
 18 49  1  0  0  0  0
 19 50  1  0  0  0  0
 21 51  1  0  0  0  0
 21 52  1  0  0  0  0
 21 53  1  0  0  0  0
 22 23  1  0  0  0  0
 22 25  2  0  0  0  0
 23 24  1  0  0  0  0
 23 26  2  0  0  0  0
 24 27  1  0  0  0  0
 24 29  2  0  0  0  0
 25 28  1  0  0  0  0
 25 54  1  0  0  0  0
 26 30  1  0  0  0  0
 26 55  1  0  0  0  0
 27 28  2  0  0  0  0
 27 56  1  0  0  0  0
 28 57  1  0  0  0  0
 29 31  1  0  0  0  0
 29 58  1  0  0  0  0
 30 31  2  0  0  0  0
 30 59  1  0  0  0  0
 31 60  1  0  0  0  0
M  END
> <PUBCHEM_COMPOUND_CID>
127047458

> <PUBCHEM_COMPOUND_CANONICALIZED>
1

> <PUBCHEM_CACTVS_COMPLEXITY>
552

> <PUBCHEM_CACTVS_HBOND_ACCEPTOR>
5

> <PUBCHEM_CACTVS_HBOND_DONOR>
1

> <PUBCHEM_CACTVS_ROTATABLE_BOND>
8

> <PUBCHEM_CACTVS_SUBSKEYS>
AAADceB7MAAAAAAAAAAAAAAAAAAAAAAAAAA8YMEAAAAAAADBVAAAHgAQAAAADAzBmAYyzsPABACIAiRCWACCCAAhIgAIiIAPbIkOZiLE8ZudMihk1hHY6AeQwLAOgAABAAAYEAAAAAIAADAgAAAAAAAAAA==

> <PUBCHEM_IUPAC_OPENEYE_NAME>
1-naphthyl N-[3-[4-(2-methoxyphenyl)piperazin-1-yl]propyl]carbamate

> <PUBCHEM_IUPAC_CAS_NAME>
N-[3-[4-(2-methoxyphenyl)-1-piperazinyl]propyl]carbamic acid 1-naphthalenyl ester

> <PUBCHEM_IUPAC_NAME_MARKUP>
naphthalen-1-yl <I>N</I>-[3-[4-(2-methoxyphenyl)piperazin-1-yl]propyl]carbamate

> <PUBCHEM_IUPAC_NAME>
naphthalen-1-yl N-[3-[4-(2-methoxyphenyl)piperazin-1-yl]propyl]carbamate

> <PUBCHEM_IUPAC_SYSTEMATIC_NAME>
naphthalen-1-yl N-[3-[4-(2-methoxyphenyl)piperazin-1-yl]propyl]carbamate

> <PUBCHEM_IUPAC_TRADITIONAL_NAME>
N-[3-[4-(2-methoxyphenyl)piperazino]propyl]carbamic acid 1-naphthyl ester

> <PUBCHEM_IUPAC_INCHI>
InChI=1S/C25H29N3O3/c1-30-24-12-5-4-11-22(24)28-18-16-27(17-19-28)15-7-14-26-25(29)31-23-13-6-9-20-8-2-3-10-21(20)23/h2-6,8-13H,7,14-19H2,1H3,(H,26,29)

> <PUBCHEM_IUPAC_INCHIKEY>
SAVFVEFYMIPDEM-UHFFFAOYSA-N

> <PUBCHEM_XLOGP3_AA>
4.7

> <PUBCHEM_EXACT_MASS>
419.22089180

> <PUBCHEM_MOLECULAR_FORMULA>
C25H29N3O3

> <PUBCHEM_MOLECULAR_WEIGHT>
419.5

> <PUBCHEM_OPENEYE_CAN_SMILES>
COC1=CC=CC=C1N2CCN(CC2)CCCNC(=O)OC3=CC=CC4=CC=CC=C43

> <PUBCHEM_OPENEYE_ISO_SMILES>
COC1=CC=CC=C1N2CCN(CC2)CCCNC(=O)OC3=CC=CC4=CC=CC=C43

> <PUBCHEM_CACTVS_TPSA>
54

> <PUBCHEM_MONOISOTOPIC_WEIGHT>
419.22089180

> <PUBCHEM_TOTAL_CHARGE>
0

> <PUBCHEM_HEAVY_ATOM_COUNT>
31

> <PUBCHEM_ATOM_DEF_STEREO_COUNT>
0

> <PUBCHEM_ATOM_UDEF_STEREO_COUNT>
0

> <PUBCHEM_BOND_DEF_STEREO_COUNT>
0

> <PUBCHEM_BOND_UDEF_STEREO_COUNT>
0

> <PUBCHEM_ISOTOPIC_ATOM_COUNT>
0

> <PUBCHEM_COMPONENT_COUNT>
1

> <PUBCHEM_CACTVS_TAUTO_COUNT>
-1

> <PUBCHEM_COORDINATE_TYPE>
1
5
255

> <PUBCHEM_BONDANNOTATIONS>
13  15  8
13  16  8
15  17  8
16  18  8
17  19  8
18  19  8
22  23  8
22  25  8
23  24  8
23  26  8
24  27  8
24  29  8
25  28  8
26  30  8
27  28  8
29  31  8
30  31  8

$$$$
