156016142
  -OEChem-09292322422D

 65 70  0     1  0  0  0  0  0999 V2000
   12.6739   -2.1943    0.0000 S   0  0  0  0  0  0  0  0  0  0  0  0
    4.5178    5.1533    0.0000 S   0  0  0  0  0  0  0  0  0  0  0  0
   12.6527   -1.1945    0.0000 O   0  0  0  0  0  0  0  0  0  0  0  0
   13.6182   -1.8652    0.0000 O   0  0  0  0  0  0  0  0  0  0  0  0
    6.5322    1.0653    0.0000 N   0  0  0  0  0  0  0  0  0  0  0  0
    5.4567    2.7515    0.0000 N   0  0  0  0  0  0  0  0  0  0  0  0
   11.6802   -2.1747    0.0000 N   0  0  3  0  0  0  0  0  0  0  0  0
    5.2836    4.5194    0.0000 N   0  0  0  0  0  0  0  0  0  0  0  0
    6.9934    1.9525    0.0000 C   0  0  0  0  0  0  0  0  0  0  0  0
    5.5331    1.0211    0.0000 C   0  0  0  0  0  0  0  0  0  0  0  0
    7.0699    0.2222    0.0000 C   0  0  0  0  0  0  0  0  0  0  0  0
    6.4557    2.7956    0.0000 C   0  0  0  0  0  0  0  0  0  0  0  0
    4.9954    1.8642    0.0000 C   0  0  0  0  0  0  0  0  0  0  0  0
    8.0689    0.2663    0.0000 C   0  0  0  0  0  0  0  0  0  0  0  0
    8.6067   -0.5768    0.0000 C   0  0  0  0  0  0  0  0  0  0  0  0
    9.6057   -0.5327    0.0000 C   0  0  0  0  0  0  0  0  0  0  0  0
   11.1425   -1.3316    0.0000 C   0  0  0  0  0  0  0  0  0  0  0  0
   10.1435   -1.3758    0.0000 C   0  0  0  0  0  0  0  0  0  0  0  0
   11.2790   -3.0839    0.0000 C   0  0  0  0  0  0  0  0  0  0  0  0
   12.1729   -3.6186    0.0000 C   0  0  0  0  0  0  0  0  0  0  0  0
   13.0390   -3.1186    0.0000 C   0  0  0  0  0  0  0  0  0  0  0  0
    4.9189    3.5946    0.0000 C   0  0  0  0  0  0  0  0  0  0  0  0
   12.1729   -4.6186    0.0000 C   0  0  0  0  0  0  0  0  0  0  0  0
   10.3729   -3.5978    0.0000 C   0  0  0  0  0  0  0  0  0  0  0  0
   13.9050   -3.6186    0.0000 C   0  0  0  0  0  0  0  0  0  0  0  0
    3.9266    3.6539    0.0000 C   0  0  0  0  0  0  0  0  0  0  0  0
   11.2790   -5.1533    0.0000 C   0  0  0  0  0  0  0  0  0  0  0  0
   13.0390   -5.1186    0.0000 C   0  0  0  0  0  0  0  0  0  0  0  0
   10.3729   -4.6394    0.0000 C   0  0  0  0  0  0  0  0  0  0  0  0
   13.9050   -4.6186    0.0000 C   0  0  0  0  0  0  0  0  0  0  0  0
    3.6774    4.6223    0.0000 C   0  0  0  0  0  0  0  0  0  0  0  0
    3.2125    2.9538    0.0000 C   0  0  0  0  0  0  0  0  0  0  0  0
    2.7141    4.8907    0.0000 C   0  0  0  0  0  0  0  0  0  0  0  0
    2.2492    3.2222    0.0000 C   0  0  0  0  0  0  0  0  0  0  0  0
    2.0000    4.1907    0.0000 C   0  0  0  0  0  0  0  0  0  0  0  0
    7.4855    1.5754    0.0000 H   0  0  0  0  0  0  0  0  0  0  0  0
    7.4503    2.3716    0.0000 H   0  0  0  0  0  0  0  0  0  0  0  0
    4.9605    0.7835    0.0000 H   0  0  0  0  0  0  0  0  0  0  0  0
    5.6676    0.4159    0.0000 H   0  0  0  0  0  0  0  0  0  0  0  0
    6.4972   -0.0154    0.0000 H   0  0  0  0  0  0  0  0  0  0  0  0
    7.2044   -0.3831    0.0000 H   0  0  0  0  0  0  0  0  0  0  0  0
    7.0284    3.0332    0.0000 H   0  0  0  0  0  0  0  0  0  0  0  0
    6.3212    3.4009    0.0000 H   0  0  0  0  0  0  0  0  0  0  0  0
    4.5033    2.2414    0.0000 H   0  0  0  0  0  0  0  0  0  0  0  0
    4.5385    1.4451    0.0000 H   0  0  0  0  0  0  0  0  0  0  0  0
    8.6416    0.5039    0.0000 H   0  0  0  0  0  0  0  0  0  0  0  0
    7.9344    0.8715    0.0000 H   0  0  0  0  0  0  0  0  0  0  0  0
    8.0340   -0.8144    0.0000 H   0  0  0  0  0  0  0  0  0  0  0  0
    8.7412   -1.1820    0.0000 H   0  0  0  0  0  0  0  0  0  0  0  0
   10.1784   -0.2951    0.0000 H   0  0  0  0  0  0  0  0  0  0  0  0
    9.4712    0.0726    0.0000 H   0  0  0  0  0  0  0  0  0  0  0  0
   11.7152   -1.0940    0.0000 H   0  0  0  0  0  0  0  0  0  0  0  0
   11.0080   -0.7264    0.0000 H   0  0  0  0  0  0  0  0  0  0  0  0
    9.5708   -1.6133    0.0000 H   0  0  0  0  0  0  0  0  0  0  0  0
   10.2780   -1.9810    0.0000 H   0  0  0  0  0  0  0  0  0  0  0  0
    9.8372   -3.2857    0.0000 H   0  0  0  0  0  0  0  0  0  0  0  0
   14.4419   -3.3086    0.0000 H   0  0  0  0  0  0  0  0  0  0  0  0
   11.2862   -5.7732    0.0000 H   0  0  0  0  0  0  0  0  0  0  0  0
   13.0390   -5.7386    0.0000 H   0  0  0  0  0  0  0  0  0  0  0  0
    9.8372   -4.9515    0.0000 H   0  0  0  0  0  0  0  0  0  0  0  0
   14.4419   -4.9286    0.0000 H   0  0  0  0  0  0  0  0  0  0  0  0
    3.3670    2.3534    0.0000 H   0  0  0  0  0  0  0  0  0  0  0  0
    2.5596    5.4912    0.0000 H   0  0  0  0  0  0  0  0  0  0  0  0
    1.8065    2.7882    0.0000 H   0  0  0  0  0  0  0  0  0  0  0  0
    1.4028    4.3571    0.0000 H   0  0  0  0  0  0  0  0  0  0  0  0
  1  3  2  0  0  0  0
  1  4  2  0  0  0  0
  1  7  1  0  0  0  0
  1 21  1  0  0  0  0
  2  8  1  0  0  0  0
  2 31  1  0  0  0  0
  5  9  1  0  0  0  0
  5 10  1  0  0  0  0
  5 11  1  0  0  0  0
  6 12  1  0  0  0  0
  6 13  1  0  0  0  0
  6 22  1  0  0  0  0
  7 17  1  0  0  0  0
  7 19  1  0  0  0  0
  8 22  2  0  0  0  0
  9 12  1  0  0  0  0
  9 36  1  0  0  0  0
  9 37  1  0  0  0  0
 10 13  1  0  0  0  0
 10 38  1  0  0  0  0
 10 39  1  0  0  0  0
 11 14  1  0  0  0  0
 11 40  1  0  0  0  0
 11 41  1  0  0  0  0
 12 42  1  0  0  0  0
 12 43  1  0  0  0  0
 13 44  1  0  0  0  0
 13 45  1  0  0  0  0
 14 15  1  0  0  0  0
 14 46  1  0  0  0  0
 14 47  1  0  0  0  0
 15 16  1  0  0  0  0
 15 48  1  0  0  0  0
 15 49  1  0  0  0  0
 16 18  1  0  0  0  0
 16 50  1  0  0  0  0
 16 51  1  0  0  0  0
 17 18  1  0  0  0  0
 17 52  1  0  0  0  0
 17 53  1  0  0  0  0
 18 54  1  0  0  0  0
 18 55  1  0  0  0  0
 19 20  1  0  0  0  0
 19 24  2  0  0  0  0
 20 21  1  0  0  0  0
 20 23  2  0  0  0  0
 21 25  2  0  0  0  0
 22 26  1  0  0  0  0
 23 27  1  0  0  0  0
 23 28  1  0  0  0  0
 24 29  1  0  0  0  0
 24 56  1  0  0  0  0
 25 30  1  0  0  0  0
 25 57  1  0  0  0  0
 26 31  1  0  0  0  0
 26 32  2  0  0  0  0
 27 29  2  0  0  0  0
 27 58  1  0  0  0  0
 28 30  2  0  0  0  0
 28 59  1  0  0  0  0
 29 60  1  0  0  0  0
 30 61  1  0  0  0  0
 31 33  2  0  0  0  0
 32 34  1  0  0  0  0
 32 62  1  0  0  0  0
 33 35  1  0  0  0  0
 33 63  1  0  0  0  0
 34 35  2  0  0  0  0
 34 64  1  0  0  0  0
 35 65  1  0  0  0  0
M  END
> <PUBCHEM_COMPOUND_CID>
156016142

> <PUBCHEM_COMPOUND_CANONICALIZED>
1

> <PUBCHEM_CACTVS_COMPLEXITY>
813

> <PUBCHEM_CACTVS_HBOND_ACCEPTOR>
7

> <PUBCHEM_CACTVS_HBOND_DONOR>
0

> <PUBCHEM_CACTVS_ROTATABLE_BOND>
8

> <PUBCHEM_CACTVS_SUBSKEYS>
AAADceB7sABgAAAAAAAAAAAAAAAAAWLAAAA8YMEAAAAAAFjB9AAAHAQAQAAADAjBWgQx8dMAAAKkAiZiYHDDABAhAgBJmDgoZJiIYKLAmZGUIAxggALIyAcQgIAOgAAAwAAWAAAAAAGAACwAAAAAAAAAAA==

> <PUBCHEM_IUPAC_OPENEYE_NAME>
3-[6-[4-(1,2-benzothiazol-3-yl)piperazin-1-yl]hexyl]-2lambda6-thia-3-azatricyclo[6.3.1.04,12]dodeca-1(11),4,6,8(12),9-pentaene 2,2-dioxide

> <PUBCHEM_IUPAC_CAS_NAME>
3-[6-[4-(1,2-benzothiazol-3-yl)-1-piperazinyl]hexyl]-2lambda6-thia-3-azatricyclo[6.3.1.04,12]dodeca-1(11),4,6,8(12),9-pentaene 2,2-dioxide

> <PUBCHEM_IUPAC_NAME_MARKUP>
3-[6-[4-(1,2-benzothiazol-3-yl)piperazin-1-yl]hexyl]-2&lambda;<SUP>6</SUP>-thia-3-azatricyclo[6.3.1.0<SUP>4,12</SUP>]dodeca-1(11),4,6,8(12),9-pentaene 2,2-dioxide

> <PUBCHEM_IUPAC_NAME>
3-[6-[4-(1,2-benzothiazol-3-yl)piperazin-1-yl]hexyl]-2lambda6-thia-3-azatricyclo[6.3.1.04,12]dodeca-1(11),4,6,8(12),9-pentaene 2,2-dioxide

> <PUBCHEM_IUPAC_SYSTEMATIC_NAME>
3-[6-[4-(1,2-benzothiazol-3-yl)piperazin-1-yl]hexyl]-2lambda6-thia-3-azatricyclo[6.3.1.04,12]dodeca-1(11),4,6,8(12),9-pentaene 2,2-dioxide

> <PUBCHEM_IUPAC_TRADITIONAL_NAME>
3-[6-[4-(1,2-benzothiazol-3-yl)piperazino]hexyl]-2lambda6-thia-3-azatricyclo[6.3.1.04,12]dodeca-1(11),4,6,8(12),9-pentaene 2,2-dioxide

> <PUBCHEM_IUPAC_INCHI>
InChI=1S/C27H30N4O2S2/c32-35(33)25-14-8-10-21-9-7-12-23(26(21)25)31(35)16-6-2-1-5-15-29-17-19-30(20-18-29)27-22-11-3-4-13-24(22)34-28-27/h3-4,7-14H,1-2,5-6,15-20H2

> <PUBCHEM_IUPAC_INCHIKEY>
DXUOUUKATHEZTO-UHFFFAOYSA-N

> <PUBCHEM_XLOGP3_AA>
5.7

> <PUBCHEM_EXACT_MASS>
506.18101856

> <PUBCHEM_MOLECULAR_FORMULA>
C27H30N4O2S2

> <PUBCHEM_MOLECULAR_WEIGHT>
506.7

> <PUBCHEM_OPENEYE_CAN_SMILES>
C1CN(CCN1CCCCCCN2C3=CC=CC4=C3C(=CC=C4)S2(=O)=O)C5=NSC6=CC=CC=C65

> <PUBCHEM_OPENEYE_ISO_SMILES>
C1CN(CCN1CCCCCCN2C3=CC=CC4=C3C(=CC=C4)S2(=O)=O)C5=NSC6=CC=CC=C65

> <PUBCHEM_CACTVS_TPSA>
93.4

> <PUBCHEM_MONOISOTOPIC_WEIGHT>
506.18101856

> <PUBCHEM_TOTAL_CHARGE>
0

> <PUBCHEM_HEAVY_ATOM_COUNT>
35

> <PUBCHEM_ATOM_DEF_STEREO_COUNT>
0

> <PUBCHEM_ATOM_UDEF_STEREO_COUNT>
0

> <PUBCHEM_BOND_DEF_STEREO_COUNT>
0

> <PUBCHEM_BOND_UDEF_STEREO_COUNT>
0

> <PUBCHEM_ISOTOPIC_ATOM_COUNT>
0

> <PUBCHEM_COMPONENT_COUNT>
1

> <PUBCHEM_CACTVS_TAUTO_COUNT>
-1

> <PUBCHEM_COORDINATE_TYPE>
1
5
255

> <PUBCHEM_BONDANNOTATIONS>
19  20  8
19  24  8
2  31  8
2  8  8
20  21  8
20  23  8
21  25  8
22  26  8
23  27  8
23  28  8
24  29  8
25  30  8
26  31  8
26  32  8
27  29  8
28  30  8
31  33  8
32  34  8
33  35  8
34  35  8
8  22  8

$$$$
