45265219
  -OEChem-09292322122D

 78 81  0     1  0  0  0  0  0999 V2000
    8.9056    0.0000    0.0000 Cl  0  0  0  0  0  0  0  0  0  0  0  0
   17.4051    8.7030    0.0000 S   0  0  0  0  0  0  0  0  0  0  0  0
    6.1824    5.5774    0.0000 O   0  0  0  0  0  0  0  0  0  0  0  0
   16.5371    9.1996    0.0000 O   0  0  0  0  0  0  0  0  0  0  0  0
    3.0891    3.7978    0.0000 O   0  0  0  0  0  0  0  0  0  0  0  0
   17.9017    9.5709    0.0000 O   0  0  0  0  0  0  0  0  0  0  0  0
   16.9084    7.8350    0.0000 O   0  0  0  0  0  0  0  0  0  0  0  0
   11.6824    8.1755    0.0000 N   0  0  3  0  0  0  0  0  0  0  0  0
    6.1824    7.3095    0.0000 N   0  0  0  0  0  0  0  0  0  0  0  0
    1.6879    4.6068    0.0000 N   0  0  0  0  0  0  0  0  0  0  0  0
    9.1824    7.3095    0.0000 C   0  0  0  0  0  0  0  0  0  0  0  0
    8.6824    6.4434    0.0000 C   0  0  0  0  0  0  0  0  0  0  0  0
    8.6824    8.1755    0.0000 C   0  0  0  0  0  0  0  0  0  0  0  0
    7.1824    7.3095    0.0000 C   0  0  0  0  0  0  0  0  0  0  0  0
    7.6824    6.4434    0.0000 C   0  0  0  0  0  0  0  0  0  0  0  0
    7.6824    8.1755    0.0000 C   0  0  0  0  0  0  0  0  0  0  0  0
   10.1824    7.3095    0.0000 C   0  0  0  0  0  0  0  0  0  0  0  0
   10.6824    8.1755    0.0000 C   0  0  0  0  0  0  0  0  0  0  0  0
   12.1163    9.0764    0.0000 C   0  0  0  0  0  0  0  0  0  0  0  0
   12.1163    7.2745    0.0000 C   0  0  0  0  0  0  0  0  0  0  0  0
   13.0912    9.2990    0.0000 C   0  0  0  0  0  0  0  0  0  0  0  0
   13.0912    7.0520    0.0000 C   0  0  0  0  0  0  0  0  0  0  0  0
   13.8730    8.6755    0.0000 C   0  0  0  0  0  0  0  0  0  0  0  0
   13.8730    7.6755    0.0000 C   0  0  0  0  0  0  0  0  0  0  0  0
    5.6824    6.4434    0.0000 C   0  0  0  0  0  0  0  0  0  0  0  0
   14.7670    9.2101    0.0000 C   0  0  0  0  0  0  0  0  0  0  0  0
   14.7670    7.1408    0.0000 C   0  0  0  0  0  0  0  0  0  0  0  0
    4.6824    6.4434    0.0000 C   0  0  0  0  0  0  0  0  0  0  0  0
   15.6730    8.6963    0.0000 C   0  0  0  0  0  0  0  0  0  0  0  0
   15.6730    7.6547    0.0000 C   0  0  0  0  0  0  0  0  0  0  0  0
    4.1824    5.5774    0.0000 C   0  0  0  0  0  0  0  0  0  0  0  0
    4.1824    7.3095    0.0000 C   0  0  0  0  0  0  0  0  0  0  0  0
    3.1824    5.5774    0.0000 C   0  0  0  0  0  0  0  0  0  0  0  0
    3.1824    7.3095    0.0000 C   0  0  0  0  0  0  0  0  0  0  0  0
    2.6824    6.4434    0.0000 C   0  0  0  0  0  0  0  0  0  0  0  0
    2.6824    4.7114    0.0000 C   0  0  0  0  0  0  0  0  0  0  0  0
   18.2730    8.2063    0.0000 C   0  0  0  0  0  0  0  0  0  0  0  0
    1.4799    3.6287    0.0000 C   0  0  0  0  0  0  0  0  0  0  0  0
    2.3460    3.1287    0.0000 C   0  0  0  0  0  0  0  0  0  0  0  0
    0.5664    3.2220    0.0000 C   0  0  0  0  0  0  0  0  0  0  0  0
    9.4924    6.7725    0.0000 H   0  0  0  0  0  0  0  0  0  0  0  0
    8.5747    5.8328    0.0000 H   0  0  0  0  0  0  0  0  0  0  0  0
    9.2650    6.2314    0.0000 H   0  0  0  0  0  0  0  0  0  0  0  0
    9.2650    8.3875    0.0000 H   0  0  0  0  0  0  0  0  0  0  0  0
    8.5747    8.7861    0.0000 H   0  0  0  0  0  0  0  0  0  0  0  0
    6.8724    6.7725    0.0000 H   0  0  0  0  0  0  0  0  0  0  0  0
    7.0998    6.2314    0.0000 H   0  0  0  0  0  0  0  0  0  0  0  0
    7.7900    5.8328    0.0000 H   0  0  0  0  0  0  0  0  0  0  0  0
    7.7900    8.7861    0.0000 H   0  0  0  0  0  0  0  0  0  0  0  0
    7.0998    8.3875    0.0000 H   0  0  0  0  0  0  0  0  0  0  0  0
   10.0747    6.6989    0.0000 H   0  0  0  0  0  0  0  0  0  0  0  0
   10.7650    7.0974    0.0000 H   0  0  0  0  0  0  0  0  0  0  0  0
   10.7900    8.7861    0.0000 H   0  0  0  0  0  0  0  0  0  0  0  0
   10.0998    8.3875    0.0000 H   0  0  0  0  0  0  0  0  0  0  0  0
    5.8724    7.8464    0.0000 H   0  0  0  0  0  0  0  0  0  0  0  0
   12.1163    9.6964    0.0000 H   0  0  0  0  0  0  0  0  0  0  0  0
   11.5118    9.2144    0.0000 H   0  0  0  0  0  0  0  0  0  0  0  0
   11.5118    7.1366    0.0000 H   0  0  0  0  0  0  0  0  0  0  0  0
   12.1163    6.6545    0.0000 H   0  0  0  0  0  0  0  0  0  0  0  0
   13.5759    9.6855    0.0000 H   0  0  0  0  0  0  0  0  0  0  0  0
   12.8222    9.8576    0.0000 H   0  0  0  0  0  0  0  0  0  0  0  0
   12.8222    6.4934    0.0000 H   0  0  0  0  0  0  0  0  0  0  0  0
   13.5759    6.6654    0.0000 H   0  0  0  0  0  0  0  0  0  0  0  0
   14.7598    9.8301    0.0000 H   0  0  0  0  0  0  0  0  0  0  0  0
   14.7598    6.5209    0.0000 H   0  0  0  0  0  0  0  0  0  0  0  0
   16.2088    7.3426    0.0000 H   0  0  0  0  0  0  0  0  0  0  0  0
    4.4924    5.0405    0.0000 H   0  0  0  0  0  0  0  0  0  0  0  0
    4.4924    7.8464    0.0000 H   0  0  0  0  0  0  0  0  0  0  0  0
    2.8724    7.8464    0.0000 H   0  0  0  0  0  0  0  0  0  0  0  0
    2.0624    6.4434    0.0000 H   0  0  0  0  0  0  0  0  0  0  0  0
   17.9651    7.6682    0.0000 H   0  0  0  0  0  0  0  0  0  0  0  0
   18.8111    7.8984    0.0000 H   0  0  0  0  0  0  0  0  0  0  0  0
   18.5809    8.7444    0.0000 H   0  0  0  0  0  0  0  0  0  0  0  0
    2.4108    2.5121    0.0000 H   0  0  0  0  0  0  0  0  0  0  0  0
    0.3142    3.7884    0.0000 H   0  0  0  0  0  0  0  0  0  0  0  0
    0.0000    2.9698    0.0000 H   0  0  0  0  0  0  0  0  0  0  0  0
    0.8186    2.6556    0.0000 H   0  0  0  0  0  0  0  0  0  0  0  0
    9.9056    0.0000    0.0000 H   0  0  0  0  0  0  0  0  0  0  0  0
  1 78  1  0  0  0  0
  2  4  1  0  0  0  0
  2  6  2  0  0  0  0
  2  7  2  0  0  0  0
  2 37  1  0  0  0  0
  3 25  2  0  0  0  0
  4 29  1  0  0  0  0
  5 36  1  0  0  0  0
  5 39  1  0  0  0  0
  8 18  1  0  0  0  0
  8 19  1  0  0  0  0
  8 20  1  0  0  0  0
  9 14  1  0  0  0  0
  9 25  1  0  0  0  0
  9 55  1  0  0  0  0
 10 36  2  0  0  0  0
 10 38  1  0  0  0  0
 11 12  1  0  0  0  0
 11 13  1  0  0  0  0
 11 17  1  0  0  0  0
 11 41  1  0  0  0  0
 12 15  1  0  0  0  0
 12 42  1  0  0  0  0
 12 43  1  0  0  0  0
 13 16  1  0  0  0  0
 13 44  1  0  0  0  0
 13 45  1  0  0  0  0
 14 15  1  0  0  0  0
 14 16  1  0  0  0  0
 14 46  1  0  0  0  0
 15 47  1  0  0  0  0
 15 48  1  0  0  0  0
 16 49  1  0  0  0  0
 16 50  1  0  0  0  0
 17 18  1  0  0  0  0
 17 51  1  0  0  0  0
 17 52  1  0  0  0  0
 18 53  1  0  0  0  0
 18 54  1  0  0  0  0
 19 21  1  0  0  0  0
 19 56  1  0  0  0  0
 19 57  1  0  0  0  0
 20 22  1  0  0  0  0
 20 58  1  0  0  0  0
 20 59  1  0  0  0  0
 21 23  1  0  0  0  0
 21 60  1  0  0  0  0
 21 61  1  0  0  0  0
 22 24  1  0  0  0  0
 22 62  1  0  0  0  0
 22 63  1  0  0  0  0
 23 24  2  0  0  0  0
 23 26  1  0  0  0  0
 24 27  1  0  0  0  0
 25 28  1  0  0  0  0
 26 29  2  0  0  0  0
 26 64  1  0  0  0  0
 27 30  2  0  0  0  0
 27 65  1  0  0  0  0
 28 31  1  0  0  0  0
 28 32  2  0  0  0  0
 29 30  1  0  0  0  0
 30 66  1  0  0  0  0
 31 33  2  0  0  0  0
 31 67  1  0  0  0  0
 32 34  1  0  0  0  0
 32 68  1  0  0  0  0
 33 35  1  0  0  0  0
 33 36  1  0  0  0  0
 34 35  2  0  0  0  0
 34 69  1  0  0  0  0
 35 70  1  0  0  0  0
 37 71  1  0  0  0  0
 37 72  1  0  0  0  0
 37 73  1  0  0  0  0
 38 39  2  0  0  0  0
 38 40  1  0  0  0  0
 39 74  1  0  0  0  0
 40 75  1  0  0  0  0
 40 76  1  0  0  0  0
 40 77  1  0  0  0  0
M  END
> <PUBCHEM_COMPOUND_CID>
45265219

> <PUBCHEM_COMPOUND_CANONICALIZED>
1

> <PUBCHEM_CACTVS_COMPLEXITY>
903

> <PUBCHEM_CACTVS_HBOND_ACCEPTOR>
7

> <PUBCHEM_CACTVS_HBOND_DONOR>
2

> <PUBCHEM_CACTVS_ROTATABLE_BOND>
8

> <PUBCHEM_CACTVS_SUBSKEYS>
AAADcfB7OABEAAAAAAAAAAAAAAAAAWAAAAAwYMAABYAAAAAB0AAAHgQQAAAADSzhngayhpPIFEKoAy1y1HSCiCAvYiAIiKG/LNgOJrKEtTuPOSjk1hGYqYeY3/KOoAADAAAQAABQAAYAACAAAAAAAAAAAA==

> <PUBCHEM_IUPAC_OPENEYE_NAME>
[3-[2-[4-[[3-(4-methyloxazol-2-yl)benzoyl]amino]cyclohexyl]ethyl]-1,2,4,5-tetrahydro-3-benzazepin-7-yl] methanesulfonate;hydrochloride

> <PUBCHEM_IUPAC_CAS_NAME>
methanesulfonic acid [3-[2-[4-[[[3-(4-methyl-2-oxazolyl)phenyl]-oxomethyl]amino]cyclohexyl]ethyl]-1,2,4,5-tetrahydro-3-benzazepin-7-yl] ester;hydrochloride

> <PUBCHEM_IUPAC_NAME_MARKUP>
[3-[2-[4-[[3-(4-methyl-1,3-oxazol-2-yl)benzoyl]amino]cyclohexyl]ethyl]-1,2,4,5-tetrahydro-3-benzazepin-7-yl] methanesulfonate;hydrochloride

> <PUBCHEM_IUPAC_NAME>
[3-[2-[4-[[3-(4-methyl-1,3-oxazol-2-yl)benzoyl]amino]cyclohexyl]ethyl]-1,2,4,5-tetrahydro-3-benzazepin-7-yl] methanesulfonate;hydrochloride

> <PUBCHEM_IUPAC_SYSTEMATIC_NAME>
[3-[2-[4-[[3-(4-methyl-1,3-oxazol-2-yl)phenyl]carbonylamino]cyclohexyl]ethyl]-1,2,4,5-tetrahydro-3-benzazepin-7-yl] methanesulfonate;hydrochloride

> <PUBCHEM_IUPAC_TRADITIONAL_NAME>
methanesulfonic acid [3-[2-[4-[[3-(4-methyloxazol-2-yl)benzoyl]amino]cyclohexyl]ethyl]-1,2,4,5-tetrahydro-3-benzazepin-7-yl] ester;hydrochloride

> <PUBCHEM_IUPAC_INCHI>
InChI=1S/C30H37N3O5S.ClH/c1-21-20-37-30(31-21)26-5-3-4-25(18-26)29(34)32-27-9-6-22(7-10-27)12-15-33-16-13-23-8-11-28(38-39(2,35)36)19-24(23)14-17-33;/h3-5,8,11,18-20,22,27H,6-7,9-10,12-17H2,1-2H3,(H,32,34);1H

> <PUBCHEM_IUPAC_INCHIKEY>
SLNCKSXMTIFQJI-UHFFFAOYSA-N

> <PUBCHEM_EXACT_MASS>
587.2220702

> <PUBCHEM_MOLECULAR_FORMULA>
C30H38ClN3O5S

> <PUBCHEM_MOLECULAR_WEIGHT>
588.2

> <PUBCHEM_OPENEYE_CAN_SMILES>
CC1=COC(=N1)C2=CC(=CC=C2)C(=O)NC3CCC(CC3)CCN4CCC5=C(CC4)C=C(C=C5)OS(=O)(=O)C.Cl

> <PUBCHEM_OPENEYE_ISO_SMILES>
CC1=COC(=N1)C2=CC(=CC=C2)C(=O)NC3CCC(CC3)CCN4CCC5=C(CC4)C=C(C=C5)OS(=O)(=O)C.Cl

> <PUBCHEM_CACTVS_TPSA>
110

> <PUBCHEM_MONOISOTOPIC_WEIGHT>
587.2220702

> <PUBCHEM_TOTAL_CHARGE>
0

> <PUBCHEM_HEAVY_ATOM_COUNT>
40

> <PUBCHEM_ATOM_DEF_STEREO_COUNT>
0

> <PUBCHEM_ATOM_UDEF_STEREO_COUNT>
0

> <PUBCHEM_BOND_DEF_STEREO_COUNT>
0

> <PUBCHEM_BOND_UDEF_STEREO_COUNT>
0

> <PUBCHEM_ISOTOPIC_ATOM_COUNT>
0

> <PUBCHEM_COMPONENT_COUNT>
2

> <PUBCHEM_CACTVS_TAUTO_COUNT>
-1

> <PUBCHEM_COORDINATE_TYPE>
1
5
255

> <PUBCHEM_BONDANNOTATIONS>
10  36  8
10  38  8
23  24  8
23  26  8
24  27  8
26  29  8
27  30  8
28  31  8
28  32  8
29  30  8
31  33  8
32  34  8
33  35  8
34  35  8
38  39  8
5  36  8
5  39  8

$$$$
