11057969
  -OEChem-09292322102D

 53 56  0     0  0  0  0  0  0999 V2000
   10.1456    2.4715    0.0000 O   0  0  0  0  0  0  0  0  0  0  0  0
    4.3211   -1.4111    0.0000 O   0  0  0  0  0  0  0  0  0  0  0  0
    7.5673    0.1581    0.0000 N   0  0  0  0  0  0  0  0  0  0  0  0
    8.1886    2.0591    0.0000 N   0  0  0  0  0  0  0  0  0  0  0  0
    5.9674   -1.9492    0.0000 N   0  0  0  0  0  0  0  0  0  0  0  0
    3.7320   -4.4107    0.0000 N   0  0  0  0  0  0  0  0  0  0  0  0
    4.6783   -4.7154    0.0000 N   0  0  0  0  0  0  0  0  0  0  0  0
    6.8994    0.9024    0.0000 C   0  0  0  0  0  0  0  0  0  0  0  0
    8.5458    0.3643    0.0000 C   0  0  0  0  0  0  0  0  0  0  0  0
    7.2101    1.8529    0.0000 C   0  0  0  0  0  0  0  0  0  0  0  0
    8.8564    1.3148    0.0000 C   0  0  0  0  0  0  0  0  0  0  0  0
    7.2566   -0.7925    0.0000 C   0  0  0  0  0  0  0  0  0  0  0  0
    8.4993    3.0096    0.0000 C   0  0  0  0  0  0  0  0  0  0  0  0
    6.2781   -0.9987    0.0000 C   0  0  0  0  0  0  0  0  0  0  0  0
    9.4778    3.2158    0.0000 C   0  0  0  0  0  0  0  0  0  0  0  0
    7.8314    3.7539    0.0000 C   0  0  0  0  0  0  0  0  0  0  0  0
    9.7884    4.1664    0.0000 C   0  0  0  0  0  0  0  0  0  0  0  0
    8.1421    4.7044    0.0000 C   0  0  0  0  0  0  0  0  0  0  0  0
    4.9889   -2.1554    0.0000 C   0  0  0  0  0  0  0  0  0  0  0  0
    9.1206    4.9107    0.0000 C   0  0  0  0  0  0  0  0  0  0  0  0
    4.6783   -3.1059    0.0000 C   0  0  0  0  0  0  0  0  0  0  0  0
    3.7320   -3.4107    0.0000 C   0  0  0  0  0  0  0  0  0  0  0  0
    5.2619   -3.9107    0.0000 C   0  0  0  0  0  0  0  0  0  0  0  0
   11.1241    2.6778    0.0000 C   0  0  0  0  0  0  0  0  0  0  0  0
    2.8660   -2.9107    0.0000 C   0  0  0  0  0  0  0  0  0  0  0  0
    2.8660   -4.9107    0.0000 C   0  0  0  0  0  0  0  0  0  0  0  0
    2.0000   -3.4107    0.0000 C   0  0  0  0  0  0  0  0  0  0  0  0
    2.0000   -4.4107    0.0000 C   0  0  0  0  0  0  0  0  0  0  0  0
    6.3525    1.1944    0.0000 H   0  0  0  0  0  0  0  0  0  0  0  0
    6.5169    0.4145    0.0000 H   0  0  0  0  0  0  0  0  0  0  0  0
    8.5663   -0.2554    0.0000 H   0  0  0  0  0  0  0  0  0  0  0  0
    9.1596    0.2769    0.0000 H   0  0  0  0  0  0  0  0  0  0  0  0
    7.1895    2.4726    0.0000 H   0  0  0  0  0  0  0  0  0  0  0  0
    6.5963    1.9402    0.0000 H   0  0  0  0  0  0  0  0  0  0  0  0
    9.4034    1.0228    0.0000 H   0  0  0  0  0  0  0  0  0  0  0  0
    9.2390    1.8027    0.0000 H   0  0  0  0  0  0  0  0  0  0  0  0
    7.2772   -1.4121    0.0000 H   0  0  0  0  0  0  0  0  0  0  0  0
    7.8704   -0.8798    0.0000 H   0  0  0  0  0  0  0  0  0  0  0  0
    6.2575   -0.3790    0.0000 H   0  0  0  0  0  0  0  0  0  0  0  0
    5.6643   -0.9113    0.0000 H   0  0  0  0  0  0  0  0  0  0  0  0
    7.2247    3.6261    0.0000 H   0  0  0  0  0  0  0  0  0  0  0  0
    6.3815   -2.4107    0.0000 H   0  0  0  0  0  0  0  0  0  0  0  0
   10.3951    4.2942    0.0000 H   0  0  0  0  0  0  0  0  0  0  0  0
    7.7280    5.1659    0.0000 H   0  0  0  0  0  0  0  0  0  0  0  0
    9.3132    5.5000    0.0000 H   0  0  0  0  0  0  0  0  0  0  0  0
    5.8819   -3.9107    0.0000 H   0  0  0  0  0  0  0  0  0  0  0  0
   11.2520    2.0711    0.0000 H   0  0  0  0  0  0  0  0  0  0  0  0
   11.7308    2.8056    0.0000 H   0  0  0  0  0  0  0  0  0  0  0  0
   10.9963    3.2844    0.0000 H   0  0  0  0  0  0  0  0  0  0  0  0
    2.8660   -2.2907    0.0000 H   0  0  0  0  0  0  0  0  0  0  0  0
    2.8660   -5.5307    0.0000 H   0  0  0  0  0  0  0  0  0  0  0  0
    1.4631   -3.1007    0.0000 H   0  0  0  0  0  0  0  0  0  0  0  0
    1.4631   -4.7207    0.0000 H   0  0  0  0  0  0  0  0  0  0  0  0
  1 15  1  0  0  0  0
  1 24  1  0  0  0  0
  2 19  2  0  0  0  0
  3  8  1  0  0  0  0
  3  9  1  0  0  0  0
  3 12  1  0  0  0  0
  4 10  1  0  0  0  0
  4 11  1  0  0  0  0
  4 13  1  0  0  0  0
  5 14  1  0  0  0  0
  5 19  1  0  0  0  0
  5 42  1  0  0  0  0
  6  7  1  0  0  0  0
  6 22  1  0  0  0  0
  6 26  1  0  0  0  0
  7 23  2  0  0  0  0
  8 10  1  0  0  0  0
  8 29  1  0  0  0  0
  8 30  1  0  0  0  0
  9 11  1  0  0  0  0
  9 31  1  0  0  0  0
  9 32  1  0  0  0  0
 10 33  1  0  0  0  0
 10 34  1  0  0  0  0
 11 35  1  0  0  0  0
 11 36  1  0  0  0  0
 12 14  1  0  0  0  0
 12 37  1  0  0  0  0
 12 38  1  0  0  0  0
 13 15  1  0  0  0  0
 13 16  2  0  0  0  0
 14 39  1  0  0  0  0
 14 40  1  0  0  0  0
 15 17  2  0  0  0  0
 16 18  1  0  0  0  0
 16 41  1  0  0  0  0
 17 20  1  0  0  0  0
 17 43  1  0  0  0  0
 18 20  2  0  0  0  0
 18 44  1  0  0  0  0
 19 21  1  0  0  0  0
 20 45  1  0  0  0  0
 21 22  2  0  0  0  0
 21 23  1  0  0  0  0
 22 25  1  0  0  0  0
 23 46  1  0  0  0  0
 24 47  1  0  0  0  0
 24 48  1  0  0  0  0
 24 49  1  0  0  0  0
 25 27  2  0  0  0  0
 25 50  1  0  0  0  0
 26 28  2  0  0  0  0
 26 51  1  0  0  0  0
 27 28  1  0  0  0  0
 27 52  1  0  0  0  0
 28 53  1  0  0  0  0
M  END
> <PUBCHEM_COMPOUND_CID>
11057969

> <PUBCHEM_COMPOUND_CANONICALIZED>
1

> <PUBCHEM_CACTVS_COMPLEXITY>
511

> <PUBCHEM_CACTVS_HBOND_ACCEPTOR>
5

> <PUBCHEM_CACTVS_HBOND_DONOR>
1

> <PUBCHEM_CACTVS_ROTATABLE_BOND>
6

> <PUBCHEM_CACTVS_SUBSKEYS>
AAADceB7sAAAAAAAAAAAAAAAAAAAAWAAAAA8WIAAAAAAAFgB8AAAHgAYAAAADAzBngY+xrPIFACqAzV3VACSjCA1oiAY2KE/bNgOZvrE9duVtahk3hHY6ceYyECMAAAAAAAAEAAAAAAAAAAgAAAAAAAAAA==

> <PUBCHEM_IUPAC_OPENEYE_NAME>
N-[2-[4-(2-methoxyphenyl)piperazin-1-yl]ethyl]pyrazolo[1,5-a]pyridine-3-carboxamide

> <PUBCHEM_IUPAC_CAS_NAME>
N-[2-[4-(2-methoxyphenyl)-1-piperazinyl]ethyl]-3-pyrazolo[1,5-a]pyridinecarboxamide

> <PUBCHEM_IUPAC_NAME_MARKUP>
<I>N</I>-[2-[4-(2-methoxyphenyl)piperazin-1-yl]ethyl]pyrazolo[1,5-a]pyridine-3-carboxamide

> <PUBCHEM_IUPAC_NAME>
N-[2-[4-(2-methoxyphenyl)piperazin-1-yl]ethyl]pyrazolo[1,5-a]pyridine-3-carboxamide

> <PUBCHEM_IUPAC_SYSTEMATIC_NAME>
N-[2-[4-(2-methoxyphenyl)piperazin-1-yl]ethyl]pyrazolo[1,5-a]pyridine-3-carboxamide

> <PUBCHEM_IUPAC_TRADITIONAL_NAME>
N-[2-[4-(2-methoxyphenyl)piperazino]ethyl]pyrazolo[1,5-a]pyridine-3-carboxamide

> <PUBCHEM_IUPAC_INCHI>
InChI=1S/C21H25N5O2/c1-28-20-8-3-2-7-19(20)25-14-12-24(13-15-25)11-9-22-21(27)17-16-23-26-10-5-4-6-18(17)26/h2-8,10,16H,9,11-15H2,1H3,(H,22,27)

> <PUBCHEM_IUPAC_INCHIKEY>
XJGIQRQUJHWFSC-UHFFFAOYSA-N

> <PUBCHEM_XLOGP3_AA>
1.9

> <PUBCHEM_EXACT_MASS>
379.20082506

> <PUBCHEM_MOLECULAR_FORMULA>
C21H25N5O2

> <PUBCHEM_MOLECULAR_WEIGHT>
379.5

> <PUBCHEM_OPENEYE_CAN_SMILES>
COC1=CC=CC=C1N2CCN(CC2)CCNC(=O)C3=C4C=CC=CN4N=C3

> <PUBCHEM_OPENEYE_ISO_SMILES>
COC1=CC=CC=C1N2CCN(CC2)CCNC(=O)C3=C4C=CC=CN4N=C3

> <PUBCHEM_CACTVS_TPSA>
62.1

> <PUBCHEM_MONOISOTOPIC_WEIGHT>
379.20082506

> <PUBCHEM_TOTAL_CHARGE>
0

> <PUBCHEM_HEAVY_ATOM_COUNT>
28

> <PUBCHEM_ATOM_DEF_STEREO_COUNT>
0

> <PUBCHEM_ATOM_UDEF_STEREO_COUNT>
0

> <PUBCHEM_BOND_DEF_STEREO_COUNT>
0

> <PUBCHEM_BOND_UDEF_STEREO_COUNT>
0

> <PUBCHEM_ISOTOPIC_ATOM_COUNT>
0

> <PUBCHEM_COMPONENT_COUNT>
1

> <PUBCHEM_CACTVS_TAUTO_COUNT>
-1

> <PUBCHEM_COORDINATE_TYPE>
1
5
255

> <PUBCHEM_BONDANNOTATIONS>
13  15  8
13  16  8
15  17  8
16  18  8
17  20  8
18  20  8
21  22  8
21  23  8
22  25  8
25  27  8
26  28  8
27  28  8
6  22  8
6  26  8
6  7  8
7  23  8

$$$$
