122186408
  -OEChem-09292322362D

 58 61  0     0  0  0  0  0  0999 V2000
   18.4939   -1.3660    0.0000 Cl  0  0  0  0  0  0  0  0  0  0  0  0
    6.4103    2.0368    0.0000 S   0  0  0  0  0  0  0  0  0  0  0  0
    7.9939   -0.5000    0.0000 O   0  0  0  0  0  0  0  0  0  0  0  0
    2.8660    2.2320    0.0000 O   0  0  0  0  0  0  0  0  0  0  0  0
   12.4939   -1.3660    0.0000 N   0  0  0  0  0  0  0  0  0  0  0  0
   14.4939   -1.3660    0.0000 N   0  0  0  0  0  0  0  0  0  0  0  0
    7.9939    1.2320    0.0000 N   0  0  0  0  0  0  0  0  0  0  0  0
    6.4103    0.4273    0.0000 N   0  0  0  0  0  0  0  0  0  0  0  0
   12.9939   -0.5000    0.0000 C   0  0  0  0  0  0  0  0  0  0  0  0
   12.9939   -2.2320    0.0000 C   0  0  0  0  0  0  0  0  0  0  0  0
   13.9939   -0.5000    0.0000 C   0  0  0  0  0  0  0  0  0  0  0  0
   13.9939   -2.2320    0.0000 C   0  0  0  0  0  0  0  0  0  0  0  0
   11.4939   -1.3660    0.0000 C   0  0  0  0  0  0  0  0  0  0  0  0
   10.9939   -0.5000    0.0000 C   0  0  0  0  0  0  0  0  0  0  0  0
   15.4939   -1.3660    0.0000 C   0  0  0  0  0  0  0  0  0  0  0  0
    9.9939   -0.5000    0.0000 C   0  0  0  0  0  0  0  0  0  0  0  0
    9.4939    0.3660    0.0000 C   0  0  0  0  0  0  0  0  0  0  0  0
   15.9939   -0.5000    0.0000 C   0  0  0  0  0  0  0  0  0  0  0  0
   15.9939   -2.2320    0.0000 C   0  0  0  0  0  0  0  0  0  0  0  0
    8.4939    0.3660    0.0000 C   0  0  0  0  0  0  0  0  0  0  0  0
   16.9939   -0.5000    0.0000 C   0  0  0  0  0  0  0  0  0  0  0  0
   16.9939   -2.2320    0.0000 C   0  0  0  0  0  0  0  0  0  0  0  0
   17.4939   -1.3660    0.0000 C   0  0  0  0  0  0  0  0  0  0  0  0
    6.9939    1.2320    0.0000 C   0  0  0  0  0  0  0  0  0  0  0  0
    5.4641    1.7320    0.0000 C   0  0  0  0  0  0  0  0  0  0  0  0
    5.4641    0.7321    0.0000 C   0  0  0  0  0  0  0  0  0  0  0  0
    4.5981    2.2320    0.0000 C   0  0  0  0  0  0  0  0  0  0  0  0
    4.5981    0.2321    0.0000 C   0  0  0  0  0  0  0  0  0  0  0  0
    3.7320    1.7320    0.0000 C   0  0  0  0  0  0  0  0  0  0  0  0
    3.7320    0.7321    0.0000 C   0  0  0  0  0  0  0  0  0  0  0  0
    2.0000    1.7320    0.0000 C   0  0  0  0  0  0  0  0  0  0  0  0
   13.1016    0.1106    0.0000 H   0  0  0  0  0  0  0  0  0  0  0  0
   12.4113   -0.2879    0.0000 H   0  0  0  0  0  0  0  0  0  0  0  0
   12.4113   -2.4441    0.0000 H   0  0  0  0  0  0  0  0  0  0  0  0
   13.1016   -2.8426    0.0000 H   0  0  0  0  0  0  0  0  0  0  0  0
   14.5765   -0.2879    0.0000 H   0  0  0  0  0  0  0  0  0  0  0  0
   13.8863    0.1106    0.0000 H   0  0  0  0  0  0  0  0  0  0  0  0
   13.8863   -2.8426    0.0000 H   0  0  0  0  0  0  0  0  0  0  0  0
   14.5765   -2.4441    0.0000 H   0  0  0  0  0  0  0  0  0  0  0  0
   10.9113   -1.5781    0.0000 H   0  0  0  0  0  0  0  0  0  0  0  0
   11.6016   -1.9766    0.0000 H   0  0  0  0  0  0  0  0  0  0  0  0
   11.5765   -0.2879    0.0000 H   0  0  0  0  0  0  0  0  0  0  0  0
   10.8863    0.1106    0.0000 H   0  0  0  0  0  0  0  0  0  0  0  0
    9.4113   -0.7121    0.0000 H   0  0  0  0  0  0  0  0  0  0  0  0
   10.1016   -1.1106    0.0000 H   0  0  0  0  0  0  0  0  0  0  0  0
   10.0765    0.5781    0.0000 H   0  0  0  0  0  0  0  0  0  0  0  0
    9.3863    0.9766    0.0000 H   0  0  0  0  0  0  0  0  0  0  0  0
   15.6839    0.0369    0.0000 H   0  0  0  0  0  0  0  0  0  0  0  0
   15.6839   -2.7690    0.0000 H   0  0  0  0  0  0  0  0  0  0  0  0
   17.3039    0.0369    0.0000 H   0  0  0  0  0  0  0  0  0  0  0  0
   17.3039   -2.7690    0.0000 H   0  0  0  0  0  0  0  0  0  0  0  0
    8.3039    1.7690    0.0000 H   0  0  0  0  0  0  0  0  0  0  0  0
    4.5981    2.8521    0.0000 H   0  0  0  0  0  0  0  0  0  0  0  0
    4.5981   -0.3879    0.0000 H   0  0  0  0  0  0  0  0  0  0  0  0
    3.1951    0.4221    0.0000 H   0  0  0  0  0  0  0  0  0  0  0  0
    1.6900    2.2690    0.0000 H   0  0  0  0  0  0  0  0  0  0  0  0
    1.4631    1.4220    0.0000 H   0  0  0  0  0  0  0  0  0  0  0  0
    2.3100    1.1951    0.0000 H   0  0  0  0  0  0  0  0  0  0  0  0
  1 23  1  0  0  0  0
  2 24  1  0  0  0  0
  2 25  1  0  0  0  0
  3 20  2  0  0  0  0
  4 29  1  0  0  0  0
  4 31  1  0  0  0  0
  5  9  1  0  0  0  0
  5 10  1  0  0  0  0
  5 13  1  0  0  0  0
  6 11  1  0  0  0  0
  6 12  1  0  0  0  0
  6 15  1  0  0  0  0
  7 20  1  0  0  0  0
  7 24  1  0  0  0  0
  7 52  1  0  0  0  0
  8 24  2  0  0  0  0
  8 26  1  0  0  0  0
  9 11  1  0  0  0  0
  9 32  1  0  0  0  0
  9 33  1  0  0  0  0
 10 12  1  0  0  0  0
 10 34  1  0  0  0  0
 10 35  1  0  0  0  0
 11 36  1  0  0  0  0
 11 37  1  0  0  0  0
 12 38  1  0  0  0  0
 12 39  1  0  0  0  0
 13 14  1  0  0  0  0
 13 40  1  0  0  0  0
 13 41  1  0  0  0  0
 14 16  1  0  0  0  0
 14 42  1  0  0  0  0
 14 43  1  0  0  0  0
 15 18  2  0  0  0  0
 15 19  1  0  0  0  0
 16 17  1  0  0  0  0
 16 44  1  0  0  0  0
 16 45  1  0  0  0  0
 17 20  1  0  0  0  0
 17 46  1  0  0  0  0
 17 47  1  0  0  0  0
 18 21  1  0  0  0  0
 18 48  1  0  0  0  0
 19 22  2  0  0  0  0
 19 49  1  0  0  0  0
 21 23  2  0  0  0  0
 21 50  1  0  0  0  0
 22 23  1  0  0  0  0
 22 51  1  0  0  0  0
 25 26  2  0  0  0  0
 25 27  1  0  0  0  0
 26 28  1  0  0  0  0
 27 29  2  0  0  0  0
 27 53  1  0  0  0  0
 28 30  2  0  0  0  0
 28 54  1  0  0  0  0
 29 30  1  0  0  0  0
 30 55  1  0  0  0  0
 31 56  1  0  0  0  0
 31 57  1  0  0  0  0
 31 58  1  0  0  0  0
M  END
> <PUBCHEM_COMPOUND_CID>
122186408

> <PUBCHEM_COMPOUND_CANONICALIZED>
1

> <PUBCHEM_CACTVS_COMPLEXITY>
570

> <PUBCHEM_CACTVS_HBOND_ACCEPTOR>
6

> <PUBCHEM_CACTVS_HBOND_DONOR>
1

> <PUBCHEM_CACTVS_ROTATABLE_BOND>
8

> <PUBCHEM_CACTVS_SUBSKEYS>
AAADceB7sABEAAAAAAAAAAAAAAAAAWAAAAA8YIAAAAAAAFgB9AAAHgYQAAAACA7B1iYz17PIFAisASVydACD+KlhLzlJmD0+bpiMZrLlu5uUMChs0RPI6Ce4QQAAAEBABAAAAQAAgIAIAAACAAAAAAAAAA==

> <PUBCHEM_IUPAC_OPENEYE_NAME>
5-[4-(4-chlorophenyl)piperazin-1-yl]-N-(6-methoxy-1,3-benzothiazol-2-yl)pentanamide

> <PUBCHEM_IUPAC_CAS_NAME>
5-[4-(4-chlorophenyl)-1-piperazinyl]-N-(6-methoxy-1,3-benzothiazol-2-yl)pentanamide

> <PUBCHEM_IUPAC_NAME_MARKUP>
5-[4-(4-chlorophenyl)piperazin-1-yl]-<I>N</I>-(6-methoxy-1,3-benzothiazol-2-yl)pentanamide

> <PUBCHEM_IUPAC_NAME>
5-[4-(4-chlorophenyl)piperazin-1-yl]-N-(6-methoxy-1,3-benzothiazol-2-yl)pentanamide

> <PUBCHEM_IUPAC_SYSTEMATIC_NAME>
5-[4-(4-chlorophenyl)piperazin-1-yl]-N-(6-methoxy-1,3-benzothiazol-2-yl)pentanamide

> <PUBCHEM_IUPAC_TRADITIONAL_NAME>
5-[4-(4-chlorophenyl)piperazino]-N-(6-methoxy-1,3-benzothiazol-2-yl)valeramide

> <PUBCHEM_IUPAC_INCHI>
InChI=1S/C23H27ClN4O2S/c1-30-19-9-10-20-21(16-19)31-23(25-20)26-22(29)4-2-3-11-27-12-14-28(15-13-27)18-7-5-17(24)6-8-18/h5-10,16H,2-4,11-15H2,1H3,(H,25,26,29)

> <PUBCHEM_IUPAC_INCHIKEY>
RJGQFVDJRWMRJD-UHFFFAOYSA-N

> <PUBCHEM_XLOGP3_AA>
4.8

> <PUBCHEM_EXACT_MASS>
458.1543250

> <PUBCHEM_MOLECULAR_FORMULA>
C23H27ClN4O2S

> <PUBCHEM_MOLECULAR_WEIGHT>
459.0

> <PUBCHEM_OPENEYE_CAN_SMILES>
COC1=CC2=C(C=C1)N=C(S2)NC(=O)CCCCN3CCN(CC3)C4=CC=C(C=C4)Cl

> <PUBCHEM_OPENEYE_ISO_SMILES>
COC1=CC2=C(C=C1)N=C(S2)NC(=O)CCCCN3CCN(CC3)C4=CC=C(C=C4)Cl

> <PUBCHEM_CACTVS_TPSA>
85.9

> <PUBCHEM_MONOISOTOPIC_WEIGHT>
458.1543250

> <PUBCHEM_TOTAL_CHARGE>
0

> <PUBCHEM_HEAVY_ATOM_COUNT>
31

> <PUBCHEM_ATOM_DEF_STEREO_COUNT>
0

> <PUBCHEM_ATOM_UDEF_STEREO_COUNT>
0

> <PUBCHEM_BOND_DEF_STEREO_COUNT>
0

> <PUBCHEM_BOND_UDEF_STEREO_COUNT>
0

> <PUBCHEM_ISOTOPIC_ATOM_COUNT>
0

> <PUBCHEM_COMPONENT_COUNT>
1

> <PUBCHEM_CACTVS_TAUTO_COUNT>
-1

> <PUBCHEM_COORDINATE_TYPE>
1
5
255

> <PUBCHEM_BONDANNOTATIONS>
15  18  8
15  19  8
18  21  8
19  22  8
2  24  8
2  25  8
21  23  8
22  23  8
25  26  8
25  27  8
26  28  8
27  29  8
28  30  8
29  30  8
8  24  8
8  26  8

$$$$
