10762475
  -OEChem-09292322092D

 55 59  0     0  0  0  0  0  0999 V2000
    6.3301   -0.5000    0.0000 N   0  0  0  0  0  0  0  0  0  0  0  0
    4.5981    0.5000    0.0000 N   0  0  0  0  0  0  0  0  0  0  0  0
   11.6065   -0.6953    0.0000 N   0  0  0  0  0  0  0  0  0  0  0  0
   11.6065   -2.3047    0.0000 N   0  0  0  0  0  0  0  0  0  0  0  0
    5.4641   -1.0000    0.0000 C   0  0  0  0  0  0  0  0  0  0  0  0
    6.3301    0.5000    0.0000 C   0  0  0  0  0  0  0  0  0  0  0  0
    4.5981   -0.5000    0.0000 C   0  0  0  0  0  0  0  0  0  0  0  0
    5.4641    1.0000    0.0000 C   0  0  0  0  0  0  0  0  0  0  0  0
    7.1962   -1.0000    0.0000 C   0  0  0  0  0  0  0  0  0  0  0  0
    8.0622   -0.5000    0.0000 C   0  0  0  0  0  0  0  0  0  0  0  0
    3.7320    1.0000    0.0000 C   0  0  0  0  0  0  0  0  0  0  0  0
    8.9282   -1.0000    0.0000 C   0  0  0  0  0  0  0  0  0  0  0  0
    9.7942   -0.5000    0.0000 C   0  0  0  0  0  0  0  0  0  0  0  0
    2.8660    0.5000    0.0000 C   0  0  0  0  0  0  0  0  0  0  0  0
    3.7320    2.0000    0.0000 C   0  0  0  0  0  0  0  0  0  0  0  0
    8.9282   -2.0000    0.0000 C   0  0  0  0  0  0  0  0  0  0  0  0
   10.6603   -1.0000    0.0000 C   0  0  0  0  0  0  0  0  0  0  0  0
   10.6603   -2.0000    0.0000 C   0  0  0  0  0  0  0  0  0  0  0  0
    9.7942   -2.5000    0.0000 C   0  0  0  0  0  0  0  0  0  0  0  0
    2.0000    1.0000    0.0000 C   0  0  0  0  0  0  0  0  0  0  0  0
    2.8660    2.5000    0.0000 C   0  0  0  0  0  0  0  0  0  0  0  0
   12.1901   -1.5000    0.0000 C   0  0  0  0  0  0  0  0  0  0  0  0
    2.0000    2.0000    0.0000 C   0  0  0  0  0  0  0  0  0  0  0  0
   13.1901   -1.5000    0.0000 C   0  0  0  0  0  0  0  0  0  0  0  0
   13.6901   -2.3660    0.0000 C   0  0  0  0  0  0  0  0  0  0  0  0
   13.6901   -0.6340    0.0000 C   0  0  0  0  0  0  0  0  0  0  0  0
   14.6901   -2.3660    0.0000 C   0  0  0  0  0  0  0  0  0  0  0  0
   14.6901   -0.6340    0.0000 C   0  0  0  0  0  0  0  0  0  0  0  0
   15.1901   -1.5000    0.0000 C   0  0  0  0  0  0  0  0  0  0  0  0
    5.0656   -1.4750    0.0000 H   0  0  0  0  0  0  0  0  0  0  0  0
    5.8626   -1.4750    0.0000 H   0  0  0  0  0  0  0  0  0  0  0  0
    6.9407    0.3923    0.0000 H   0  0  0  0  0  0  0  0  0  0  0  0
    6.5422    1.0826    0.0000 H   0  0  0  0  0  0  0  0  0  0  0  0
    3.9875   -0.3923    0.0000 H   0  0  0  0  0  0  0  0  0  0  0  0
    4.3860   -1.0826    0.0000 H   0  0  0  0  0  0  0  0  0  0  0  0
    5.8626    1.4750    0.0000 H   0  0  0  0  0  0  0  0  0  0  0  0
    5.0656    1.4750    0.0000 H   0  0  0  0  0  0  0  0  0  0  0  0
    6.7976   -1.4750    0.0000 H   0  0  0  0  0  0  0  0  0  0  0  0
    7.5947   -1.4750    0.0000 H   0  0  0  0  0  0  0  0  0  0  0  0
    8.4607   -0.0251    0.0000 H   0  0  0  0  0  0  0  0  0  0  0  0
    7.6636   -0.0251    0.0000 H   0  0  0  0  0  0  0  0  0  0  0  0
    9.7942    0.1200    0.0000 H   0  0  0  0  0  0  0  0  0  0  0  0
    2.8660   -0.1200    0.0000 H   0  0  0  0  0  0  0  0  0  0  0  0
    4.2690    2.3100    0.0000 H   0  0  0  0  0  0  0  0  0  0  0  0
    8.3913   -2.3100    0.0000 H   0  0  0  0  0  0  0  0  0  0  0  0
    9.7942   -3.1200    0.0000 H   0  0  0  0  0  0  0  0  0  0  0  0
   11.7991   -0.1059    0.0000 H   0  0  0  0  0  0  0  0  0  0  0  0
    1.4631    0.6900    0.0000 H   0  0  0  0  0  0  0  0  0  0  0  0
    2.8660    3.1200    0.0000 H   0  0  0  0  0  0  0  0  0  0  0  0
    1.4631    2.3100    0.0000 H   0  0  0  0  0  0  0  0  0  0  0  0
   13.3801   -2.9030    0.0000 H   0  0  0  0  0  0  0  0  0  0  0  0
   13.3801   -0.0970    0.0000 H   0  0  0  0  0  0  0  0  0  0  0  0
   15.0001   -2.9030    0.0000 H   0  0  0  0  0  0  0  0  0  0  0  0
   15.0001   -0.0970    0.0000 H   0  0  0  0  0  0  0  0  0  0  0  0
   15.8101   -1.5000    0.0000 H   0  0  0  0  0  0  0  0  0  0  0  0
  1  5  1  0  0  0  0
  1  6  1  0  0  0  0
  1  9  1  0  0  0  0
  2  7  1  0  0  0  0
  2  8  1  0  0  0  0
  2 11  1  0  0  0  0
  3 17  1  0  0  0  0
  3 22  1  0  0  0  0
  3 47  1  0  0  0  0
  4 18  1  0  0  0  0
  4 22  2  0  0  0  0
  5  7  1  0  0  0  0
  5 30  1  0  0  0  0
  5 31  1  0  0  0  0
  6  8  1  0  0  0  0
  6 32  1  0  0  0  0
  6 33  1  0  0  0  0
  7 34  1  0  0  0  0
  7 35  1  0  0  0  0
  8 36  1  0  0  0  0
  8 37  1  0  0  0  0
  9 10  1  0  0  0  0
  9 38  1  0  0  0  0
  9 39  1  0  0  0  0
 10 12  1  0  0  0  0
 10 40  1  0  0  0  0
 10 41  1  0  0  0  0
 11 14  2  0  0  0  0
 11 15  1  0  0  0  0
 12 13  2  0  0  0  0
 12 16  1  0  0  0  0
 13 17  1  0  0  0  0
 13 42  1  0  0  0  0
 14 20  1  0  0  0  0
 14 43  1  0  0  0  0
 15 21  2  0  0  0  0
 15 44  1  0  0  0  0
 16 19  2  0  0  0  0
 16 45  1  0  0  0  0
 17 18  2  0  0  0  0
 18 19  1  0  0  0  0
 19 46  1  0  0  0  0
 20 23  2  0  0  0  0
 20 48  1  0  0  0  0
 21 23  1  0  0  0  0
 21 49  1  0  0  0  0
 22 24  1  0  0  0  0
 23 50  1  0  0  0  0
 24 25  2  0  0  0  0
 24 26  1  0  0  0  0
 25 27  1  0  0  0  0
 25 51  1  0  0  0  0
 26 28  2  0  0  0  0
 26 52  1  0  0  0  0
 27 29  2  0  0  0  0
 27 53  1  0  0  0  0
 28 29  1  0  0  0  0
 28 54  1  0  0  0  0
 29 55  1  0  0  0  0
M  END
> <PUBCHEM_COMPOUND_CID>
10762475

> <PUBCHEM_COMPOUND_CANONICALIZED>
1

> <PUBCHEM_CACTVS_COMPLEXITY>
491

> <PUBCHEM_CACTVS_HBOND_ACCEPTOR>
3

> <PUBCHEM_CACTVS_HBOND_DONOR>
1

> <PUBCHEM_CACTVS_ROTATABLE_BOND>
5

> <PUBCHEM_CACTVS_SUBSKEYS>
AAADceB7gAAAAAAAAAAAAAAAAAAAAWAAAAA8YMEAAAAAAFgB9AAAHAAQAAAADAjBHwQx0LfJkACgAyZiZACCgC2hEqAJmSA4dJiIaKLAmZGUIAhokALIyCcQgIAOCAAAQAAAACAQAACAAAAAQAAAAAAAAA==

> <PUBCHEM_IUPAC_OPENEYE_NAME>
2-phenyl-6-[2-(4-phenylpiperazin-1-yl)ethyl]-1H-benzimidazole

> <PUBCHEM_IUPAC_CAS_NAME>
2-phenyl-6-[2-(4-phenyl-1-piperazinyl)ethyl]-1H-benzimidazole

> <PUBCHEM_IUPAC_NAME_MARKUP>
2-phenyl-6-[2-(4-phenylpiperazin-1-yl)ethyl]-1<I>H</I>-benzimidazole

> <PUBCHEM_IUPAC_NAME>
2-phenyl-6-[2-(4-phenylpiperazin-1-yl)ethyl]-1H-benzimidazole

> <PUBCHEM_IUPAC_SYSTEMATIC_NAME>
2-phenyl-6-[2-(4-phenylpiperazin-1-yl)ethyl]-1H-benzimidazole

> <PUBCHEM_IUPAC_TRADITIONAL_NAME>
2-phenyl-6-[2-(4-phenylpiperazino)ethyl]-1H-benzimidazole

> <PUBCHEM_IUPAC_INCHI>
InChI=1S/C25H26N4/c1-3-7-21(8-4-1)25-26-23-12-11-20(19-24(23)27-25)13-14-28-15-17-29(18-16-28)22-9-5-2-6-10-22/h1-12,19H,13-18H2,(H,26,27)

> <PUBCHEM_IUPAC_INCHIKEY>
LCOXKZYCBKEFQL-UHFFFAOYSA-N

> <PUBCHEM_XLOGP3_AA>
5

> <PUBCHEM_EXACT_MASS>
382.21574685

> <PUBCHEM_MOLECULAR_FORMULA>
C25H26N4

> <PUBCHEM_MOLECULAR_WEIGHT>
382.5

> <PUBCHEM_OPENEYE_CAN_SMILES>
C1CN(CCN1CCC2=CC3=C(C=C2)N=C(N3)C4=CC=CC=C4)C5=CC=CC=C5

> <PUBCHEM_OPENEYE_ISO_SMILES>
C1CN(CCN1CCC2=CC3=C(C=C2)N=C(N3)C4=CC=CC=C4)C5=CC=CC=C5

> <PUBCHEM_CACTVS_TPSA>
35.2

> <PUBCHEM_MONOISOTOPIC_WEIGHT>
382.21574685

> <PUBCHEM_TOTAL_CHARGE>
0

> <PUBCHEM_HEAVY_ATOM_COUNT>
29

> <PUBCHEM_ATOM_DEF_STEREO_COUNT>
0

> <PUBCHEM_ATOM_UDEF_STEREO_COUNT>
0

> <PUBCHEM_BOND_DEF_STEREO_COUNT>
0

> <PUBCHEM_BOND_UDEF_STEREO_COUNT>
0

> <PUBCHEM_ISOTOPIC_ATOM_COUNT>
0

> <PUBCHEM_COMPONENT_COUNT>
1

> <PUBCHEM_CACTVS_TAUTO_COUNT>
-1

> <PUBCHEM_COORDINATE_TYPE>
1
5
255

> <PUBCHEM_BONDANNOTATIONS>
11  14  8
11  15  8
12  13  8
12  16  8
13  17  8
14  20  8
15  21  8
16  19  8
17  18  8
18  19  8
20  23  8
21  23  8
24  25  8
24  26  8
25  27  8
26  28  8
27  29  8
28  29  8
3  17  8
3  22  8
4  18  8
4  22  8

$$$$
