60165539
  -OEChem-09292322322D

 49 52  0     0  0  0  0  0  0999 V2000
   15.2619   -0.9330    0.0000 Cl  0  0  0  0  0  0  0  0  0  0  0  0
    4.6783    1.6038    0.0000 S   0  0  0  0  0  0  0  0  0  0  0  0
    6.7619    1.6651    0.0000 O   0  0  0  0  0  0  0  0  0  0  0  0
    9.2619   -0.9330    0.0000 N   0  0  0  0  0  0  0  0  0  0  0  0
   11.2619   -0.9330    0.0000 N   0  0  0  0  0  0  0  0  0  0  0  0
    4.6783   -0.0057    0.0000 N   0  0  0  0  0  0  0  0  0  0  0  0
    9.7619   -0.0670    0.0000 C   0  0  0  0  0  0  0  0  0  0  0  0
    9.7619   -1.7990    0.0000 C   0  0  0  0  0  0  0  0  0  0  0  0
   10.7619   -0.0670    0.0000 C   0  0  0  0  0  0  0  0  0  0  0  0
   10.7619   -1.7990    0.0000 C   0  0  0  0  0  0  0  0  0  0  0  0
    8.2619   -0.9330    0.0000 C   0  0  0  0  0  0  0  0  0  0  0  0
    7.7619   -0.0670    0.0000 C   0  0  0  0  0  0  0  0  0  0  0  0
   12.2619   -0.9330    0.0000 C   0  0  0  0  0  0  0  0  0  0  0  0
    6.7619   -0.0670    0.0000 C   0  0  0  0  0  0  0  0  0  0  0  0
   12.7619   -1.7990    0.0000 C   0  0  0  0  0  0  0  0  0  0  0  0
   12.7619   -0.0670    0.0000 C   0  0  0  0  0  0  0  0  0  0  0  0
    6.2619    0.7990    0.0000 C   0  0  0  0  0  0  0  0  0  0  0  0
   13.7619   -1.7990    0.0000 C   0  0  0  0  0  0  0  0  0  0  0  0
   13.7619   -0.0670    0.0000 C   0  0  0  0  0  0  0  0  0  0  0  0
    5.2619    0.7990    0.0000 C   0  0  0  0  0  0  0  0  0  0  0  0
   14.2619   -0.9330    0.0000 C   0  0  0  0  0  0  0  0  0  0  0  0
    3.7320    1.2990    0.0000 C   0  0  0  0  0  0  0  0  0  0  0  0
    3.7320    0.2990    0.0000 C   0  0  0  0  0  0  0  0  0  0  0  0
    2.8660    1.7990    0.0000 C   0  0  0  0  0  0  0  0  0  0  0  0
    2.8660   -0.2010    0.0000 C   0  0  0  0  0  0  0  0  0  0  0  0
    2.0000    1.2990    0.0000 C   0  0  0  0  0  0  0  0  0  0  0  0
    2.0000    0.2990    0.0000 C   0  0  0  0  0  0  0  0  0  0  0  0
    9.8695    0.5436    0.0000 H   0  0  0  0  0  0  0  0  0  0  0  0
    9.1793    0.1451    0.0000 H   0  0  0  0  0  0  0  0  0  0  0  0
    9.1793   -2.0111    0.0000 H   0  0  0  0  0  0  0  0  0  0  0  0
    9.8695   -2.4096    0.0000 H   0  0  0  0  0  0  0  0  0  0  0  0
   11.3445    0.1451    0.0000 H   0  0  0  0  0  0  0  0  0  0  0  0
   10.6542    0.5436    0.0000 H   0  0  0  0  0  0  0  0  0  0  0  0
   10.6542   -2.4096    0.0000 H   0  0  0  0  0  0  0  0  0  0  0  0
   11.3445   -2.0111    0.0000 H   0  0  0  0  0  0  0  0  0  0  0  0
    7.6793   -1.1451    0.0000 H   0  0  0  0  0  0  0  0  0  0  0  0
    8.3695   -1.5436    0.0000 H   0  0  0  0  0  0  0  0  0  0  0  0
    8.3445    0.1451    0.0000 H   0  0  0  0  0  0  0  0  0  0  0  0
    7.6542    0.5436    0.0000 H   0  0  0  0  0  0  0  0  0  0  0  0
    6.1793   -0.2790    0.0000 H   0  0  0  0  0  0  0  0  0  0  0  0
    6.8695   -0.6776    0.0000 H   0  0  0  0  0  0  0  0  0  0  0  0
   12.4519   -2.3360    0.0000 H   0  0  0  0  0  0  0  0  0  0  0  0
   12.4519    0.4699    0.0000 H   0  0  0  0  0  0  0  0  0  0  0  0
   14.0719   -2.3360    0.0000 H   0  0  0  0  0  0  0  0  0  0  0  0
   14.0719    0.4699    0.0000 H   0  0  0  0  0  0  0  0  0  0  0  0
    2.8660    2.4190    0.0000 H   0  0  0  0  0  0  0  0  0  0  0  0
    2.8660   -0.8210    0.0000 H   0  0  0  0  0  0  0  0  0  0  0  0
    1.4631    1.6090    0.0000 H   0  0  0  0  0  0  0  0  0  0  0  0
    1.4631   -0.0110    0.0000 H   0  0  0  0  0  0  0  0  0  0  0  0
  1 21  1  0  0  0  0
  2 20  1  0  0  0  0
  2 22  1  0  0  0  0
  3 17  2  0  0  0  0
  4  7  1  0  0  0  0
  4  8  1  0  0  0  0
  4 11  1  0  0  0  0
  5  9  1  0  0  0  0
  5 10  1  0  0  0  0
  5 13  1  0  0  0  0
  6 20  2  0  0  0  0
  6 23  1  0  0  0  0
  7  9  1  0  0  0  0
  7 28  1  0  0  0  0
  7 29  1  0  0  0  0
  8 10  1  0  0  0  0
  8 30  1  0  0  0  0
  8 31  1  0  0  0  0
  9 32  1  0  0  0  0
  9 33  1  0  0  0  0
 10 34  1  0  0  0  0
 10 35  1  0  0  0  0
 11 12  1  0  0  0  0
 11 36  1  0  0  0  0
 11 37  1  0  0  0  0
 12 14  1  0  0  0  0
 12 38  1  0  0  0  0
 12 39  1  0  0  0  0
 13 15  2  0  0  0  0
 13 16  1  0  0  0  0
 14 17  1  0  0  0  0
 14 40  1  0  0  0  0
 14 41  1  0  0  0  0
 15 18  1  0  0  0  0
 15 42  1  0  0  0  0
 16 19  2  0  0  0  0
 16 43  1  0  0  0  0
 17 20  1  0  0  0  0
 18 21  2  0  0  0  0
 18 44  1  0  0  0  0
 19 21  1  0  0  0  0
 19 45  1  0  0  0  0
 22 23  1  0  0  0  0
 22 24  2  0  0  0  0
 23 25  2  0  0  0  0
 24 26  1  0  0  0  0
 24 46  1  0  0  0  0
 25 27  1  0  0  0  0
 25 47  1  0  0  0  0
 26 27  2  0  0  0  0
 26 48  1  0  0  0  0
 27 49  1  0  0  0  0
M  END
> <PUBCHEM_COMPOUND_CID>
60165539

> <PUBCHEM_COMPOUND_CANONICALIZED>
1

> <PUBCHEM_CACTVS_COMPLEXITY>
492

> <PUBCHEM_CACTVS_HBOND_ACCEPTOR>
5

> <PUBCHEM_CACTVS_HBOND_DONOR>
0

> <PUBCHEM_CACTVS_ROTATABLE_BOND>
6

> <PUBCHEM_CACTVS_SUBSKEYS>
AAADceB7IABEAAAAAAAAAAAAAAAAAWAAAAA8YIAAAAAAAFgB9AAAHgYAAAAACA7B1iQwwbMIEAisAaRyRACD8KBjDzhImD24ZpgIYLLhk7GUIAhggADoyAcUAAAAAABAAAAAAQAAAIAAAAACAAAAAAAAAA==

> <PUBCHEM_IUPAC_OPENEYE_NAME>
1-(1,3-benzothiazol-2-yl)-4-[4-(4-chlorophenyl)piperazin-1-yl]butan-1-one

> <PUBCHEM_IUPAC_CAS_NAME>
1-(1,3-benzothiazol-2-yl)-4-[4-(4-chlorophenyl)-1-piperazinyl]-1-butanone

> <PUBCHEM_IUPAC_NAME_MARKUP>
1-(1,3-benzothiazol-2-yl)-4-[4-(4-chlorophenyl)piperazin-1-yl]butan-1-one

> <PUBCHEM_IUPAC_NAME>
1-(1,3-benzothiazol-2-yl)-4-[4-(4-chlorophenyl)piperazin-1-yl]butan-1-one

> <PUBCHEM_IUPAC_SYSTEMATIC_NAME>
1-(1,3-benzothiazol-2-yl)-4-[4-(4-chlorophenyl)piperazin-1-yl]butan-1-one

> <PUBCHEM_IUPAC_TRADITIONAL_NAME>
1-(1,3-benzothiazol-2-yl)-4-[4-(4-chlorophenyl)piperazino]butan-1-one

> <PUBCHEM_IUPAC_INCHI>
InChI=1S/C21H22ClN3OS/c22-16-7-9-17(10-8-16)25-14-12-24(13-15-25)11-3-5-19(26)21-23-18-4-1-2-6-20(18)27-21/h1-2,4,6-10H,3,5,11-15H2

> <PUBCHEM_IUPAC_INCHIKEY>
ZDOSDNJHLYKAPO-UHFFFAOYSA-N

> <PUBCHEM_XLOGP3_AA>
4.9

> <PUBCHEM_EXACT_MASS>
399.1172112

> <PUBCHEM_MOLECULAR_FORMULA>
C21H22ClN3OS

> <PUBCHEM_MOLECULAR_WEIGHT>
399.9

> <PUBCHEM_OPENEYE_CAN_SMILES>
C1CN(CCN1CCCC(=O)C2=NC3=CC=CC=C3S2)C4=CC=C(C=C4)Cl

> <PUBCHEM_OPENEYE_ISO_SMILES>
C1CN(CCN1CCCC(=O)C2=NC3=CC=CC=C3S2)C4=CC=C(C=C4)Cl

> <PUBCHEM_CACTVS_TPSA>
64.7

> <PUBCHEM_MONOISOTOPIC_WEIGHT>
399.1172112

> <PUBCHEM_TOTAL_CHARGE>
0

> <PUBCHEM_HEAVY_ATOM_COUNT>
27

> <PUBCHEM_ATOM_DEF_STEREO_COUNT>
0

> <PUBCHEM_ATOM_UDEF_STEREO_COUNT>
0

> <PUBCHEM_BOND_DEF_STEREO_COUNT>
0

> <PUBCHEM_BOND_UDEF_STEREO_COUNT>
0

> <PUBCHEM_ISOTOPIC_ATOM_COUNT>
0

> <PUBCHEM_COMPONENT_COUNT>
1

> <PUBCHEM_CACTVS_TAUTO_COUNT>
-1

> <PUBCHEM_COORDINATE_TYPE>
1
5
255

> <PUBCHEM_BONDANNOTATIONS>
13  15  8
13  16  8
15  18  8
16  19  8
18  21  8
19  21  8
2  20  8
2  22  8
22  23  8
22  24  8
23  25  8
24  26  8
25  27  8
26  27  8
6  20  8
6  23  8

$$$$
