71657947
  -OEChem-09292322332D

 59 61  0     1  0  0  0  0  0999 V2000
    6.4453    6.9881    0.0000 Cl  0  0  0  0  0  0  0  0  0  0  0  0
    2.8660   -4.9881    0.0000 O   0  0  0  0  0  0  0  0  0  0  0  0
    3.7126    3.3095    0.0000 O   0  0  0  0  0  0  0  0  0  0  0  0
    5.0981   -1.7974    0.0000 N   0  0  3  0  0  0  0  0  0  0  0  0
    4.5981   -3.9881    0.0000 N   0  0  3  0  0  0  0  0  0  0  0  0
    5.2731    2.5580    0.0000 N   0  0  0  0  0  0  0  0  0  0  0  0
    4.0981   -1.7974    0.0000 C   0  0  0  0  0  0  0  0  0  0  0  0
    5.7216   -2.5793    0.0000 C   0  0  0  0  0  0  0  0  0  0  0  0
    3.4746   -2.5793    0.0000 C   0  0  0  0  0  0  0  0  0  0  0  0
    5.4990   -3.5542    0.0000 C   0  0  0  0  0  0  0  0  0  0  0  0
    3.6971   -3.5542    0.0000 C   0  0  0  0  0  0  0  0  0  0  0  0
    5.5320   -0.8965    0.0000 C   0  0  0  0  0  0  0  0  0  0  0  0
    4.9686   -0.0702    0.0000 C   0  0  0  0  0  0  0  0  0  0  0  0
    4.5981   -4.9881    0.0000 C   0  0  0  0  0  0  0  0  0  0  0  0
    5.4025    0.8307    0.0000 C   0  0  0  0  0  0  0  0  0  0  0  0
    4.8392    1.6570    0.0000 C   0  0  0  0  0  0  0  0  0  0  0  0
    3.7320   -5.4881    0.0000 C   0  0  0  0  0  0  0  0  0  0  0  0
    5.4641   -5.4881    0.0000 C   0  0  0  0  0  0  0  0  0  0  0  0
    3.7320   -6.4881    0.0000 C   0  0  0  0  0  0  0  0  0  0  0  0
    5.4641   -6.4881    0.0000 C   0  0  0  0  0  0  0  0  0  0  0  0
    4.5981   -6.9881    0.0000 C   0  0  0  0  0  0  0  0  0  0  0  0
    4.7098    3.3842    0.0000 C   0  0  0  0  0  0  0  0  0  0  0  0
    2.0000   -5.4881    0.0000 C   0  0  0  0  0  0  0  0  0  0  0  0
    5.1436    4.2852    0.0000 C   0  0  0  0  0  0  0  0  0  0  0  0
    6.1408    4.3599    0.0000 C   0  0  0  0  0  0  0  0  0  0  0  0
    4.5803    5.1114    0.0000 C   0  0  0  0  0  0  0  0  0  0  0  0
    6.5747    5.2609    0.0000 C   0  0  0  0  0  0  0  0  0  0  0  0
    5.0142    6.0124    0.0000 C   0  0  0  0  0  0  0  0  0  0  0  0
    6.0114    6.0871    0.0000 C   0  0  0  0  0  0  0  0  0  0  0  0
    4.2360   -1.1930    0.0000 H   0  0  0  0  0  0  0  0  0  0  0  0
    3.5395   -1.5284    0.0000 H   0  0  0  0  0  0  0  0  0  0  0  0
    6.2802   -2.8483    0.0000 H   0  0  0  0  0  0  0  0  0  0  0  0
    6.1081   -2.0945    0.0000 H   0  0  0  0  0  0  0  0  0  0  0  0
    3.0880   -2.0945    0.0000 H   0  0  0  0  0  0  0  0  0  0  0  0
    2.9160   -2.8483    0.0000 H   0  0  0  0  0  0  0  0  0  0  0  0
    5.6370   -4.1586    0.0000 H   0  0  0  0  0  0  0  0  0  0  0  0
    6.1190   -3.5542    0.0000 H   0  0  0  0  0  0  0  0  0  0  0  0
    3.0771   -3.5542    0.0000 H   0  0  0  0  0  0  0  0  0  0  0  0
    3.5591   -4.1586    0.0000 H   0  0  0  0  0  0  0  0  0  0  0  0
    6.0354   -1.2584    0.0000 H   0  0  0  0  0  0  0  0  0  0  0  0
    5.9758   -0.4636    0.0000 H   0  0  0  0  0  0  0  0  0  0  0  0
    4.4652    0.2917    0.0000 H   0  0  0  0  0  0  0  0  0  0  0  0
    4.5248   -0.5031    0.0000 H   0  0  0  0  0  0  0  0  0  0  0  0
    5.9059    0.4688    0.0000 H   0  0  0  0  0  0  0  0  0  0  0  0
    5.8464    1.2637    0.0000 H   0  0  0  0  0  0  0  0  0  0  0  0
    4.3358    2.0189    0.0000 H   0  0  0  0  0  0  0  0  0  0  0  0
    4.3954    1.2241    0.0000 H   0  0  0  0  0  0  0  0  0  0  0  0
    6.0010   -5.1781    0.0000 H   0  0  0  0  0  0  0  0  0  0  0  0
    3.1951   -6.7981    0.0000 H   0  0  0  0  0  0  0  0  0  0  0  0
    6.0010   -6.7981    0.0000 H   0  0  0  0  0  0  0  0  0  0  0  0
    5.8914    2.6043    0.0000 H   0  0  0  0  0  0  0  0  0  0  0  0
    4.5981   -7.6081    0.0000 H   0  0  0  0  0  0  0  0  0  0  0  0
    1.6900   -4.9511    0.0000 H   0  0  0  0  0  0  0  0  0  0  0  0
    1.4631   -5.7981    0.0000 H   0  0  0  0  0  0  0  0  0  0  0  0
    2.3100   -6.0250    0.0000 H   0  0  0  0  0  0  0  0  0  0  0  0
    6.4901    3.8476    0.0000 H   0  0  0  0  0  0  0  0  0  0  0  0
    3.9621    5.0651    0.0000 H   0  0  0  0  0  0  0  0  0  0  0  0
    7.1930    5.3072    0.0000 H   0  0  0  0  0  0  0  0  0  0  0  0
    4.6650    6.5246    0.0000 H   0  0  0  0  0  0  0  0  0  0  0  0
  1 29  1  0  0  0  0
  2 17  1  0  0  0  0
  2 23  1  0  0  0  0
  3 22  2  0  0  0  0
  4  7  1  0  0  0  0
  4  8  1  0  0  0  0
  4 12  1  0  0  0  0
  5 10  1  0  0  0  0
  5 11  1  0  0  0  0
  5 14  1  0  0  0  0
  6 16  1  0  0  0  0
  6 22  1  0  0  0  0
  6 51  1  0  0  0  0
  7  9  1  0  0  0  0
  7 30  1  0  0  0  0
  7 31  1  0  0  0  0
  8 10  1  0  0  0  0
  8 32  1  0  0  0  0
  8 33  1  0  0  0  0
  9 11  1  0  0  0  0
  9 34  1  0  0  0  0
  9 35  1  0  0  0  0
 10 36  1  0  0  0  0
 10 37  1  0  0  0  0
 11 38  1  0  0  0  0
 11 39  1  0  0  0  0
 12 13  1  0  0  0  0
 12 40  1  0  0  0  0
 12 41  1  0  0  0  0
 13 15  1  0  0  0  0
 13 42  1  0  0  0  0
 13 43  1  0  0  0  0
 14 17  1  0  0  0  0
 14 18  2  0  0  0  0
 15 16  1  0  0  0  0
 15 44  1  0  0  0  0
 15 45  1  0  0  0  0
 16 46  1  0  0  0  0
 16 47  1  0  0  0  0
 17 19  2  0  0  0  0
 18 20  1  0  0  0  0
 18 48  1  0  0  0  0
 19 21  1  0  0  0  0
 19 49  1  0  0  0  0
 20 21  2  0  0  0  0
 20 50  1  0  0  0  0
 21 52  1  0  0  0  0
 22 24  1  0  0  0  0
 23 53  1  0  0  0  0
 23 54  1  0  0  0  0
 23 55  1  0  0  0  0
 24 25  2  0  0  0  0
 24 26  1  0  0  0  0
 25 27  1  0  0  0  0
 25 56  1  0  0  0  0
 26 28  2  0  0  0  0
 26 57  1  0  0  0  0
 27 29  2  0  0  0  0
 27 58  1  0  0  0  0
 28 29  1  0  0  0  0
 28 59  1  0  0  0  0
M  END
> <PUBCHEM_COMPOUND_CID>
71657947

> <PUBCHEM_COMPOUND_CANONICALIZED>
1

> <PUBCHEM_CACTVS_COMPLEXITY>
485

> <PUBCHEM_CACTVS_HBOND_ACCEPTOR>
4

> <PUBCHEM_CACTVS_HBOND_DONOR>
1

> <PUBCHEM_CACTVS_ROTATABLE_BOND>
8

> <PUBCHEM_CACTVS_SUBSKEYS>
AAADceB7MAAEAAAAAAAAAAAAAAAAAAAAAAAwYAAABYAAAAABQAAAHgIQAAAADA7BmCYyxoPABACIAiVSUACCCAAlJwAIiIEPbsgOZjLF95uVMShk1hHY6YeYyACOBAAAAAAAEAAIAAAAAAAgAAAAAAAAAA==

> <PUBCHEM_IUPAC_OPENEYE_NAME>
4-chloro-N-[4-[4-(2-methoxyphenyl)-1,4-diazepan-1-yl]butyl]benzamide

> <PUBCHEM_IUPAC_CAS_NAME>
4-chloro-N-[4-[4-(2-methoxyphenyl)-1,4-diazepan-1-yl]butyl]benzamide

> <PUBCHEM_IUPAC_NAME_MARKUP>
4-chloro-<I>N</I>-[4-[4-(2-methoxyphenyl)-1,4-diazepan-1-yl]butyl]benzamide

> <PUBCHEM_IUPAC_NAME>
4-chloro-N-[4-[4-(2-methoxyphenyl)-1,4-diazepan-1-yl]butyl]benzamide

> <PUBCHEM_IUPAC_SYSTEMATIC_NAME>
4-chloranyl-N-[4-[4-(2-methoxyphenyl)-1,4-diazepan-1-yl]butyl]benzamide

> <PUBCHEM_IUPAC_TRADITIONAL_NAME>
4-chloro-N-[4-[4-(2-methoxyphenyl)-1,4-diazepan-1-yl]butyl]benzamide

> <PUBCHEM_IUPAC_INCHI>
InChI=1S/C23H30ClN3O2/c1-29-22-8-3-2-7-21(22)27-16-6-15-26(17-18-27)14-5-4-13-25-23(28)19-9-11-20(24)12-10-19/h2-3,7-12H,4-6,13-18H2,1H3,(H,25,28)

> <PUBCHEM_IUPAC_INCHIKEY>
XNEFEJLBHUTYJL-UHFFFAOYSA-N

> <PUBCHEM_XLOGP3_AA>
4.5

> <PUBCHEM_EXACT_MASS>
415.2026549

> <PUBCHEM_MOLECULAR_FORMULA>
C23H30ClN3O2

> <PUBCHEM_MOLECULAR_WEIGHT>
416.0

> <PUBCHEM_OPENEYE_CAN_SMILES>
COC1=CC=CC=C1N2CCCN(CC2)CCCCNC(=O)C3=CC=C(C=C3)Cl

> <PUBCHEM_OPENEYE_ISO_SMILES>
COC1=CC=CC=C1N2CCCN(CC2)CCCCNC(=O)C3=CC=C(C=C3)Cl

> <PUBCHEM_CACTVS_TPSA>
44.8

> <PUBCHEM_MONOISOTOPIC_WEIGHT>
415.2026549

> <PUBCHEM_TOTAL_CHARGE>
0

> <PUBCHEM_HEAVY_ATOM_COUNT>
29

> <PUBCHEM_ATOM_DEF_STEREO_COUNT>
0

> <PUBCHEM_ATOM_UDEF_STEREO_COUNT>
0

> <PUBCHEM_BOND_DEF_STEREO_COUNT>
0

> <PUBCHEM_BOND_UDEF_STEREO_COUNT>
0

> <PUBCHEM_ISOTOPIC_ATOM_COUNT>
0

> <PUBCHEM_COMPONENT_COUNT>
1

> <PUBCHEM_CACTVS_TAUTO_COUNT>
-1

> <PUBCHEM_COORDINATE_TYPE>
1
5
255

> <PUBCHEM_BONDANNOTATIONS>
14  17  8
14  18  8
17  19  8
18  20  8
19  21  8
20  21  8
24  25  8
24  26  8
25  27  8
26  28  8
27  29  8
28  29  8

$$$$
