137635364
  -OEChem-09292322402D

 62 65  0     0  0  0  0  0  0999 V2000
   14.2619   -3.9641    0.0000 F   0  0  0  0  0  0  0  0  0  0  0  0
   13.7619   -1.3660    0.0000 O   0  0  0  0  0  0  0  0  0  0  0  0
    6.7619    3.8301    0.0000 O   0  0  0  0  0  0  0  0  0  0  0  0
   10.7619    0.3660    0.0000 N   0  0  0  0  0  0  0  0  0  0  0  0
   12.7619    0.3660    0.0000 N   0  0  0  0  0  0  0  0  0  0  0  0
    6.7619    2.0981    0.0000 N   0  0  0  0  0  0  0  0  0  0  0  0
    3.7320    2.4641    0.0000 N   0  0  0  0  0  0  0  0  0  0  0  0
    4.6783    2.1594    0.0000 N   0  0  0  0  0  0  0  0  0  0  0  0
   11.2619    1.2320    0.0000 C   0  0  0  0  0  0  0  0  0  0  0  0
   11.2619   -0.5000    0.0000 C   0  0  0  0  0  0  0  0  0  0  0  0
   12.2619    1.2320    0.0000 C   0  0  0  0  0  0  0  0  0  0  0  0
   12.2619   -0.5000    0.0000 C   0  0  0  0  0  0  0  0  0  0  0  0
    9.7619    0.3660    0.0000 C   0  0  0  0  0  0  0  0  0  0  0  0
    9.2619    1.2320    0.0000 C   0  0  0  0  0  0  0  0  0  0  0  0
   13.7619    0.3660    0.0000 C   0  0  0  0  0  0  0  0  0  0  0  0
    8.2619    1.2320    0.0000 C   0  0  0  0  0  0  0  0  0  0  0  0
    7.7619    2.0981    0.0000 C   0  0  0  0  0  0  0  0  0  0  0  0
   14.2619   -0.5000    0.0000 C   0  0  0  0  0  0  0  0  0  0  0  0
   14.2619    1.2320    0.0000 C   0  0  0  0  0  0  0  0  0  0  0  0
   15.2619   -0.5000    0.0000 C   0  0  0  0  0  0  0  0  0  0  0  0
   15.2619    1.2320    0.0000 C   0  0  0  0  0  0  0  0  0  0  0  0
   15.7619    0.3660    0.0000 C   0  0  0  0  0  0  0  0  0  0  0  0
    6.2619    2.9641    0.0000 C   0  0  0  0  0  0  0  0  0  0  0  0
   14.2619   -2.2320    0.0000 C   0  0  0  0  0  0  0  0  0  0  0  0
    5.2619    2.9641    0.0000 C   0  0  0  0  0  0  0  0  0  0  0  0
    4.6783    3.7688    0.0000 C   0  0  0  0  0  0  0  0  0  0  0  0
   13.7619   -3.0981    0.0000 C   0  0  0  0  0  0  0  0  0  0  0  0
    3.7320    3.4641    0.0000 C   0  0  0  0  0  0  0  0  0  0  0  0
    2.8660    3.9641    0.0000 C   0  0  0  0  0  0  0  0  0  0  0  0
    2.8660    1.9641    0.0000 C   0  0  0  0  0  0  0  0  0  0  0  0
    2.0000    3.4641    0.0000 C   0  0  0  0  0  0  0  0  0  0  0  0
    2.0000    2.4641    0.0000 C   0  0  0  0  0  0  0  0  0  0  0  0
   11.3695    1.8426    0.0000 H   0  0  0  0  0  0  0  0  0  0  0  0
   10.6793    1.4441    0.0000 H   0  0  0  0  0  0  0  0  0  0  0  0
   10.6793   -0.7121    0.0000 H   0  0  0  0  0  0  0  0  0  0  0  0
   11.3695   -1.1106    0.0000 H   0  0  0  0  0  0  0  0  0  0  0  0
   12.8445    1.4441    0.0000 H   0  0  0  0  0  0  0  0  0  0  0  0
   12.1542    1.8426    0.0000 H   0  0  0  0  0  0  0  0  0  0  0  0
   12.1542   -1.1106    0.0000 H   0  0  0  0  0  0  0  0  0  0  0  0
   12.8445   -0.7121    0.0000 H   0  0  0  0  0  0  0  0  0  0  0  0
    9.1793    0.1540    0.0000 H   0  0  0  0  0  0  0  0  0  0  0  0
    9.8695   -0.2446    0.0000 H   0  0  0  0  0  0  0  0  0  0  0  0
    9.8445    1.4441    0.0000 H   0  0  0  0  0  0  0  0  0  0  0  0
    9.1542    1.8426    0.0000 H   0  0  0  0  0  0  0  0  0  0  0  0
    7.6793    1.0200    0.0000 H   0  0  0  0  0  0  0  0  0  0  0  0
    8.3695    0.6215    0.0000 H   0  0  0  0  0  0  0  0  0  0  0  0
    8.3445    2.3101    0.0000 H   0  0  0  0  0  0  0  0  0  0  0  0
    7.6542    2.7087    0.0000 H   0  0  0  0  0  0  0  0  0  0  0  0
   13.9519    1.7690    0.0000 H   0  0  0  0  0  0  0  0  0  0  0  0
   15.5719   -1.0369    0.0000 H   0  0  0  0  0  0  0  0  0  0  0  0
   15.5719    1.7690    0.0000 H   0  0  0  0  0  0  0  0  0  0  0  0
    6.4519    1.5611    0.0000 H   0  0  0  0  0  0  0  0  0  0  0  0
   16.3819    0.3660    0.0000 H   0  0  0  0  0  0  0  0  0  0  0  0
   14.7368   -2.6306    0.0000 H   0  0  0  0  0  0  0  0  0  0  0  0
   14.7368   -1.8335    0.0000 H   0  0  0  0  0  0  0  0  0  0  0  0
    4.8709    4.3582    0.0000 H   0  0  0  0  0  0  0  0  0  0  0  0
   13.2869   -2.6996    0.0000 H   0  0  0  0  0  0  0  0  0  0  0  0
   13.2869   -3.4966    0.0000 H   0  0  0  0  0  0  0  0  0  0  0  0
    2.8660    4.5841    0.0000 H   0  0  0  0  0  0  0  0  0  0  0  0
    2.8660    1.3441    0.0000 H   0  0  0  0  0  0  0  0  0  0  0  0
    1.4631    3.7741    0.0000 H   0  0  0  0  0  0  0  0  0  0  0  0
    1.4631    2.1541    0.0000 H   0  0  0  0  0  0  0  0  0  0  0  0
  1 27  1  0  0  0  0
  2 18  1  0  0  0  0
  2 24  1  0  0  0  0
  3 23  2  0  0  0  0
  4  9  1  0  0  0  0
  4 10  1  0  0  0  0
  4 13  1  0  0  0  0
  5 11  1  0  0  0  0
  5 12  1  0  0  0  0
  5 15  1  0  0  0  0
  6 17  1  0  0  0  0
  6 23  1  0  0  0  0
  6 52  1  0  0  0  0
  7  8  1  0  0  0  0
  7 28  1  0  0  0  0
  7 30  1  0  0  0  0
  8 25  2  0  0  0  0
  9 11  1  0  0  0  0
  9 33  1  0  0  0  0
  9 34  1  0  0  0  0
 10 12  1  0  0  0  0
 10 35  1  0  0  0  0
 10 36  1  0  0  0  0
 11 37  1  0  0  0  0
 11 38  1  0  0  0  0
 12 39  1  0  0  0  0
 12 40  1  0  0  0  0
 13 14  1  0  0  0  0
 13 41  1  0  0  0  0
 13 42  1  0  0  0  0
 14 16  1  0  0  0  0
 14 43  1  0  0  0  0
 14 44  1  0  0  0  0
 15 18  1  0  0  0  0
 15 19  2  0  0  0  0
 16 17  1  0  0  0  0
 16 45  1  0  0  0  0
 16 46  1  0  0  0  0
 17 47  1  0  0  0  0
 17 48  1  0  0  0  0
 18 20  2  0  0  0  0
 19 21  1  0  0  0  0
 19 49  1  0  0  0  0
 20 22  1  0  0  0  0
 20 50  1  0  0  0  0
 21 22  2  0  0  0  0
 21 51  1  0  0  0  0
 22 53  1  0  0  0  0
 23 25  1  0  0  0  0
 24 27  1  0  0  0  0
 24 54  1  0  0  0  0
 24 55  1  0  0  0  0
 25 26  1  0  0  0  0
 26 28  2  0  0  0  0
 26 56  1  0  0  0  0
 27 57  1  0  0  0  0
 27 58  1  0  0  0  0
 28 29  1  0  0  0  0
 29 31  2  0  0  0  0
 29 59  1  0  0  0  0
 30 32  2  0  0  0  0
 30 60  1  0  0  0  0
 31 32  1  0  0  0  0
 31 61  1  0  0  0  0
 32 62  1  0  0  0  0
M  END
> <PUBCHEM_COMPOUND_CID>
137635364

> <PUBCHEM_COMPOUND_CANONICALIZED>
1

> <PUBCHEM_CACTVS_COMPLEXITY>
575

> <PUBCHEM_CACTVS_HBOND_ACCEPTOR>
6

> <PUBCHEM_CACTVS_HBOND_DONOR>
1

> <PUBCHEM_CACTVS_ROTATABLE_BOND>
10

> <PUBCHEM_CACTVS_SUBSKEYS>
AAADceB7sQAAAAAAAAAAAAAAAAAAAWAAAAA8WIAAAAAAAFgB8AAAHwAYAAAACAzhlgY8xrPIFACqATV3VACSjCA3oiAY2KG/bNgOZvLE9duXvSjk3hHY6YecyICAAAAAAAAAEAAAAAAAAAAgAAAAAAAAAA==

> <PUBCHEM_IUPAC_OPENEYE_NAME>
N-[4-[4-[2-(2-fluoroethoxy)phenyl]piperazin-1-yl]butyl]pyrazolo[1,5-a]pyridine-2-carboxamide

> <PUBCHEM_IUPAC_CAS_NAME>
N-[4-[4-[2-(2-fluoroethoxy)phenyl]-1-piperazinyl]butyl]-2-pyrazolo[1,5-a]pyridinecarboxamide

> <PUBCHEM_IUPAC_NAME_MARKUP>
<I>N</I>-[4-[4-[2-(2-fluoroethoxy)phenyl]piperazin-1-yl]butyl]pyrazolo[1,5-a]pyridine-2-carboxamide

> <PUBCHEM_IUPAC_NAME>
N-[4-[4-[2-(2-fluoroethoxy)phenyl]piperazin-1-yl]butyl]pyrazolo[1,5-a]pyridine-2-carboxamide

> <PUBCHEM_IUPAC_SYSTEMATIC_NAME>
N-[4-[4-[2-(2-fluoranylethoxy)phenyl]piperazin-1-yl]butyl]pyrazolo[1,5-a]pyridine-2-carboxamide

> <PUBCHEM_IUPAC_TRADITIONAL_NAME>
N-[4-[4-[2-(2-fluoroethoxy)phenyl]piperazino]butyl]pyrazolo[1,5-a]pyridine-2-carboxamide

> <PUBCHEM_IUPAC_INCHI>
InChI=1S/C24H30FN5O2/c25-10-18-32-23-9-2-1-8-22(23)29-16-14-28(15-17-29)12-6-4-11-26-24(31)21-19-20-7-3-5-13-30(20)27-21/h1-3,5,7-9,13,19H,4,6,10-12,14-18H2,(H,26,31)

> <PUBCHEM_IUPAC_INCHIKEY>
ASYRWYXXPRLTPR-UHFFFAOYSA-N

> <PUBCHEM_XLOGP3_AA>
3.3

> <PUBCHEM_EXACT_MASS>
439.23835338

> <PUBCHEM_MOLECULAR_FORMULA>
C24H30FN5O2

> <PUBCHEM_MOLECULAR_WEIGHT>
439.5

> <PUBCHEM_OPENEYE_CAN_SMILES>
C1CN(CCN1CCCCNC(=O)C2=NN3C=CC=CC3=C2)C4=CC=CC=C4OCCF

> <PUBCHEM_OPENEYE_ISO_SMILES>
C1CN(CCN1CCCCNC(=O)C2=NN3C=CC=CC3=C2)C4=CC=CC=C4OCCF

> <PUBCHEM_CACTVS_TPSA>
62.1

> <PUBCHEM_MONOISOTOPIC_WEIGHT>
439.23835338

> <PUBCHEM_TOTAL_CHARGE>
0

> <PUBCHEM_HEAVY_ATOM_COUNT>
32

> <PUBCHEM_ATOM_DEF_STEREO_COUNT>
0

> <PUBCHEM_ATOM_UDEF_STEREO_COUNT>
0

> <PUBCHEM_BOND_DEF_STEREO_COUNT>
0

> <PUBCHEM_BOND_UDEF_STEREO_COUNT>
0

> <PUBCHEM_ISOTOPIC_ATOM_COUNT>
0

> <PUBCHEM_COMPONENT_COUNT>
1

> <PUBCHEM_CACTVS_TAUTO_COUNT>
-1

> <PUBCHEM_COORDINATE_TYPE>
1
5
255

> <PUBCHEM_BONDANNOTATIONS>
15  18  8
15  19  8
18  20  8
19  21  8
20  22  8
21  22  8
25  26  8
26  28  8
28  29  8
29  31  8
30  32  8
31  32  8
7  28  8
7  30  8
7  8  8
8  25  8

$$$$
