57390695
  -OEChem-09292322322D

 55 58  0     1  0  0  0  0  0999 V2000
   10.7231   -4.8670    0.0000 Cl  0  0  0  0  0  0  0  0  0  0  0  0
    4.6783    4.6718    0.0000 S   0  0  0  0  0  0  0  0  0  0  0  0
    6.7619    4.7331    0.0000 O   0  0  0  0  0  0  0  0  0  0  0  0
    9.7619    1.2690    0.0000 N   0  0  3  0  0  0  0  0  0  0  0  0
   10.4242   -0.8782    0.0000 N   0  0  3  0  0  0  0  0  0  0  0  0
    4.6783    3.0623    0.0000 N   0  0  0  0  0  0  0  0  0  0  0  0
   10.7591    1.3437    0.0000 C   0  0  0  0  0  0  0  0  0  0  0  0
    9.1986    0.4427    0.0000 C   0  0  0  0  0  0  0  0  0  0  0  0
   11.4393    0.6106    0.0000 C   0  0  0  0  0  0  0  0  0  0  0  0
    9.4933   -0.5129    0.0000 C   0  0  0  0  0  0  0  0  0  0  0  0
   11.2902   -0.3782    0.0000 C   0  0  0  0  0  0  0  0  0  0  0  0
    9.2619    2.1350    0.0000 C   0  0  0  0  0  0  0  0  0  0  0  0
    8.2619    2.1350    0.0000 C   0  0  0  0  0  0  0  0  0  0  0  0
    7.7619    3.0010    0.0000 C   0  0  0  0  0  0  0  0  0  0  0  0
   10.4989   -1.8754    0.0000 C   0  0  0  0  0  0  0  0  0  0  0  0
    6.7619    3.0010    0.0000 C   0  0  0  0  0  0  0  0  0  0  0  0
    9.6727   -2.4387    0.0000 C   0  0  0  0  0  0  0  0  0  0  0  0
   11.3999   -2.3093    0.0000 C   0  0  0  0  0  0  0  0  0  0  0  0
    6.2619    3.8670    0.0000 C   0  0  0  0  0  0  0  0  0  0  0  0
    9.7474   -3.4359    0.0000 C   0  0  0  0  0  0  0  0  0  0  0  0
   11.4746   -3.3065    0.0000 C   0  0  0  0  0  0  0  0  0  0  0  0
   10.6484   -3.8698    0.0000 C   0  0  0  0  0  0  0  0  0  0  0  0
    5.2619    3.8670    0.0000 C   0  0  0  0  0  0  0  0  0  0  0  0
    3.7320    4.3670    0.0000 C   0  0  0  0  0  0  0  0  0  0  0  0
    3.7320    3.3670    0.0000 C   0  0  0  0  0  0  0  0  0  0  0  0
    2.8660    4.8670    0.0000 C   0  0  0  0  0  0  0  0  0  0  0  0
    2.8660    2.8670    0.0000 C   0  0  0  0  0  0  0  0  0  0  0  0
    2.0000    4.3670    0.0000 C   0  0  0  0  0  0  0  0  0  0  0  0
    2.0000    3.3670    0.0000 C   0  0  0  0  0  0  0  0  0  0  0  0
   11.2960    1.6537    0.0000 H   0  0  0  0  0  0  0  0  0  0  0  0
   10.5763    1.9361    0.0000 H   0  0  0  0  0  0  0  0  0  0  0  0
    8.7768    0.8972    0.0000 H   0  0  0  0  0  0  0  0  0  0  0  0
    8.6616    0.1327    0.0000 H   0  0  0  0  0  0  0  0  0  0  0  0
   12.0164    0.3841    0.0000 H   0  0  0  0  0  0  0  0  0  0  0  0
   11.7885    1.1229    0.0000 H   0  0  0  0  0  0  0  0  0  0  0  0
    8.8750   -0.5592    0.0000 H   0  0  0  0  0  0  0  0  0  0  0  0
    9.4009   -1.1259    0.0000 H   0  0  0  0  0  0  0  0  0  0  0  0
   11.4730   -0.9707    0.0000 H   0  0  0  0  0  0  0  0  0  0  0  0
   11.9085   -0.3319    0.0000 H   0  0  0  0  0  0  0  0  0  0  0  0
    9.8445    2.3470    0.0000 H   0  0  0  0  0  0  0  0  0  0  0  0
    9.1542    2.7456    0.0000 H   0  0  0  0  0  0  0  0  0  0  0  0
    7.6793    1.9229    0.0000 H   0  0  0  0  0  0  0  0  0  0  0  0
    8.3695    1.5244    0.0000 H   0  0  0  0  0  0  0  0  0  0  0  0
    8.3445    3.2130    0.0000 H   0  0  0  0  0  0  0  0  0  0  0  0
    7.6542    3.6116    0.0000 H   0  0  0  0  0  0  0  0  0  0  0  0
    6.1793    2.7889    0.0000 H   0  0  0  0  0  0  0  0  0  0  0  0
    6.8695    2.3904    0.0000 H   0  0  0  0  0  0  0  0  0  0  0  0
    9.1141   -2.1697    0.0000 H   0  0  0  0  0  0  0  0  0  0  0  0
   11.9122   -1.9600    0.0000 H   0  0  0  0  0  0  0  0  0  0  0  0
    9.2351   -3.7852    0.0000 H   0  0  0  0  0  0  0  0  0  0  0  0
   12.0332   -3.5755    0.0000 H   0  0  0  0  0  0  0  0  0  0  0  0
    2.8660    5.4870    0.0000 H   0  0  0  0  0  0  0  0  0  0  0  0
    2.8660    2.2470    0.0000 H   0  0  0  0  0  0  0  0  0  0  0  0
    1.4631    4.6770    0.0000 H   0  0  0  0  0  0  0  0  0  0  0  0
    1.4631    3.0570    0.0000 H   0  0  0  0  0  0  0  0  0  0  0  0
  1 22  1  0  0  0  0
  2 23  1  0  0  0  0
  2 24  1  0  0  0  0
  3 19  2  0  0  0  0
  4  7  1  0  0  0  0
  4  8  1  0  0  0  0
  4 12  1  0  0  0  0
  5 10  1  0  0  0  0
  5 11  1  0  0  0  0
  5 15  1  0  0  0  0
  6 23  2  0  0  0  0
  6 25  1  0  0  0  0
  7  9  1  0  0  0  0
  7 30  1  0  0  0  0
  7 31  1  0  0  0  0
  8 10  1  0  0  0  0
  8 32  1  0  0  0  0
  8 33  1  0  0  0  0
  9 11  1  0  0  0  0
  9 34  1  0  0  0  0
  9 35  1  0  0  0  0
 10 36  1  0  0  0  0
 10 37  1  0  0  0  0
 11 38  1  0  0  0  0
 11 39  1  0  0  0  0
 12 13  1  0  0  0  0
 12 40  1  0  0  0  0
 12 41  1  0  0  0  0
 13 14  1  0  0  0  0
 13 42  1  0  0  0  0
 13 43  1  0  0  0  0
 14 16  1  0  0  0  0
 14 44  1  0  0  0  0
 14 45  1  0  0  0  0
 15 17  2  0  0  0  0
 15 18  1  0  0  0  0
 16 19  1  0  0  0  0
 16 46  1  0  0  0  0
 16 47  1  0  0  0  0
 17 20  1  0  0  0  0
 17 48  1  0  0  0  0
 18 21  2  0  0  0  0
 18 49  1  0  0  0  0
 19 23  1  0  0  0  0
 20 22  2  0  0  0  0
 20 50  1  0  0  0  0
 21 22  1  0  0  0  0
 21 51  1  0  0  0  0
 24 25  1  0  0  0  0
 24 26  2  0  0  0  0
 25 27  2  0  0  0  0
 26 28  1  0  0  0  0
 26 52  1  0  0  0  0
 27 29  1  0  0  0  0
 27 53  1  0  0  0  0
 28 29  2  0  0  0  0
 28 54  1  0  0  0  0
 29 55  1  0  0  0  0
M  END
> <PUBCHEM_COMPOUND_CID>
57390695

> <PUBCHEM_COMPOUND_CANONICALIZED>
1

> <PUBCHEM_CACTVS_COMPLEXITY>
528

> <PUBCHEM_CACTVS_HBOND_ACCEPTOR>
5

> <PUBCHEM_CACTVS_HBOND_DONOR>
0

> <PUBCHEM_CACTVS_ROTATABLE_BOND>
7

> <PUBCHEM_CACTVS_SUBSKEYS>
AAADceB7IABEAAAAAAAAAAAAAAAAAWAAAAAwYAAABYAAAFgB9AAAHgYAAAAACA7B1iQwwbMIEAisAaRyRACD8KBjDzhImD24ZpgIYLLh07GUIAhggADoyAcYAQAAAABAAAAAAQAAAIAAAAACAAAAAAAAAA==

> <PUBCHEM_IUPAC_OPENEYE_NAME>
1-(1,3-benzothiazol-2-yl)-5-[4-(4-chlorophenyl)-1,4-diazepan-1-yl]pentan-1-one

> <PUBCHEM_IUPAC_CAS_NAME>
1-(1,3-benzothiazol-2-yl)-5-[4-(4-chlorophenyl)-1,4-diazepan-1-yl]-1-pentanone

> <PUBCHEM_IUPAC_NAME_MARKUP>
1-(1,3-benzothiazol-2-yl)-5-[4-(4-chlorophenyl)-1,4-diazepan-1-yl]pentan-1-one

> <PUBCHEM_IUPAC_NAME>
1-(1,3-benzothiazol-2-yl)-5-[4-(4-chlorophenyl)-1,4-diazepan-1-yl]pentan-1-one

> <PUBCHEM_IUPAC_SYSTEMATIC_NAME>
1-(1,3-benzothiazol-2-yl)-5-[4-(4-chlorophenyl)-1,4-diazepan-1-yl]pentan-1-one

> <PUBCHEM_IUPAC_TRADITIONAL_NAME>
1-(1,3-benzothiazol-2-yl)-5-[4-(4-chlorophenyl)-1,4-diazepan-1-yl]pentan-1-one

> <PUBCHEM_IUPAC_INCHI>
InChI=1S/C23H26ClN3OS/c24-18-9-11-19(12-10-18)27-15-5-14-26(16-17-27)13-4-3-7-21(28)23-25-20-6-1-2-8-22(20)29-23/h1-2,6,8-12H,3-5,7,13-17H2

> <PUBCHEM_IUPAC_INCHIKEY>
QLTASWSCCMMISJ-UHFFFAOYSA-N

> <PUBCHEM_XLOGP3_AA>
5.7

> <PUBCHEM_EXACT_MASS>
427.1485113

> <PUBCHEM_MOLECULAR_FORMULA>
C23H26ClN3OS

> <PUBCHEM_MOLECULAR_WEIGHT>
428.0

> <PUBCHEM_OPENEYE_CAN_SMILES>
C1CN(CCN(C1)C2=CC=C(C=C2)Cl)CCCCC(=O)C3=NC4=CC=CC=C4S3

> <PUBCHEM_OPENEYE_ISO_SMILES>
C1CN(CCN(C1)C2=CC=C(C=C2)Cl)CCCCC(=O)C3=NC4=CC=CC=C4S3

> <PUBCHEM_CACTVS_TPSA>
64.7

> <PUBCHEM_MONOISOTOPIC_WEIGHT>
427.1485113

> <PUBCHEM_TOTAL_CHARGE>
0

> <PUBCHEM_HEAVY_ATOM_COUNT>
29

> <PUBCHEM_ATOM_DEF_STEREO_COUNT>
0

> <PUBCHEM_ATOM_UDEF_STEREO_COUNT>
0

> <PUBCHEM_BOND_DEF_STEREO_COUNT>
0

> <PUBCHEM_BOND_UDEF_STEREO_COUNT>
0

> <PUBCHEM_ISOTOPIC_ATOM_COUNT>
0

> <PUBCHEM_COMPONENT_COUNT>
1

> <PUBCHEM_CACTVS_TAUTO_COUNT>
-1

> <PUBCHEM_COORDINATE_TYPE>
1
5
255

> <PUBCHEM_BONDANNOTATIONS>
15  17  8
15  18  8
17  20  8
18  21  8
2  23  8
2  24  8
20  22  8
21  22  8
24  25  8
24  26  8
25  27  8
26  28  8
27  29  8
28  29  8
6  23  8
6  25  8

$$$$
