10590717
  -OEChem-09292322102D

 44 46  0     1  0  0  0  0  0999 V2000
    3.8936   -2.8256    0.0000 S   0  0  0  0  0  0  0  0  0  0  0  0
    5.6898    0.0206    0.0000 O   0  0  0  0  0  0  0  0  0  0  0  0
    8.3579    0.5242    0.0000 N   0  0  0  0  0  0  0  0  0  0  0  0
    3.8936   -1.2161    0.0000 N   0  0  0  0  0  0  0  0  0  0  0  0
    2.3100   -2.0209    0.0000 N   0  0  0  0  0  0  0  0  0  0  0  0
    7.4899    0.0276    0.0000 C   0  0  3  0  0  0  0  0  0  0  0  0
    7.4819   -1.0140    0.0000 C   0  0  0  0  0  0  0  0  0  0  0  0
    6.5878    0.5484    0.0000 C   0  0  0  0  0  0  0  0  0  0  0  0
    8.3617    1.5242    0.0000 C   0  0  0  0  0  0  0  0  0  0  0  0
    9.2220    0.0209    0.0000 C   0  0  0  0  0  0  0  0  0  0  0  0
    6.5719   -1.5209    0.0000 C   0  0  0  0  0  0  0  0  0  0  0  0
    5.7058   -1.0209    0.0000 C   0  0  0  0  0  0  0  0  0  0  0  0
    9.2297    2.0209    0.0000 C   0  0  0  0  0  0  0  0  0  0  0  0
   10.0899    0.5176    0.0000 C   0  0  0  0  0  0  0  0  0  0  0  0
    6.5719   -2.5209    0.0000 C   0  0  0  0  0  0  0  0  0  0  0  0
    4.8398   -1.5209    0.0000 C   0  0  0  0  0  0  0  0  0  0  0  0
    4.8398   -2.5209    0.0000 C   0  0  0  0  0  0  0  0  0  0  0  0
    5.7058   -3.0209    0.0000 C   0  0  0  0  0  0  0  0  0  0  0  0
    9.2335    3.0209    0.0000 C   0  0  0  0  0  0  0  0  0  0  0  0
   10.9540    0.0142    0.0000 C   0  0  0  0  0  0  0  0  0  0  0  0
    3.3100   -2.0209    0.0000 C   0  0  0  0  0  0  0  0  0  0  0  0
    8.0250   -0.2855    0.0000 H   0  0  0  0  0  0  0  0  0  0  0  0
    7.6864   -1.5993    0.0000 H   0  0  0  0  0  0  0  0  0  0  0  0
    8.0935   -0.9126    0.0000 H   0  0  0  0  0  0  0  0  0  0  0  0
    6.9851    1.0244    0.0000 H   0  0  0  0  0  0  0  0  0  0  0  0
    6.1869    1.0213    0.0000 H   0  0  0  0  0  0  0  0  0  0  0  0
    8.1519    2.1076    0.0000 H   0  0  0  0  0  0  0  0  0  0  0  0
    7.7507    1.4189    0.0000 H   0  0  0  0  0  0  0  0  0  0  0  0
    8.8216   -0.4525    0.0000 H   0  0  0  0  0  0  0  0  0  0  0  0
    9.6186   -0.4556    0.0000 H   0  0  0  0  0  0  0  0  0  0  0  0
    9.4395    1.4375    0.0000 H   0  0  0  0  0  0  0  0  0  0  0  0
    9.8406    2.1262    0.0000 H   0  0  0  0  0  0  0  0  0  0  0  0
   10.4903    0.9910    0.0000 H   0  0  0  0  0  0  0  0  0  0  0  0
    9.6932    0.9940    0.0000 H   0  0  0  0  0  0  0  0  0  0  0  0
    7.1088   -2.8309    0.0000 H   0  0  0  0  0  0  0  0  0  0  0  0
    5.7058   -3.6409    0.0000 H   0  0  0  0  0  0  0  0  0  0  0  0
    9.8535    3.0185    0.0000 H   0  0  0  0  0  0  0  0  0  0  0  0
    9.2359    3.6409    0.0000 H   0  0  0  0  0  0  0  0  0  0  0  0
    8.6135    3.0233    0.0000 H   0  0  0  0  0  0  0  0  0  0  0  0
   10.6419   -0.5215    0.0000 H   0  0  0  0  0  0  0  0  0  0  0  0
   11.4897   -0.2978    0.0000 H   0  0  0  0  0  0  0  0  0  0  0  0
   11.2661    0.5500    0.0000 H   0  0  0  0  0  0  0  0  0  0  0  0
    2.0000   -2.5578    0.0000 H   0  0  0  0  0  0  0  0  0  0  0  0
    2.0000   -1.4839    0.0000 H   0  0  0  0  0  0  0  0  0  0  0  0
  1 17  1  0  0  0  0
  1 21  1  0  0  0  0
  2  8  1  0  0  0  0
  2 12  1  0  0  0  0
  3  6  1  0  0  0  0
  3  9  1  0  0  0  0
  3 10  1  0  0  0  0
  4 16  1  0  0  0  0
  4 21  2  0  0  0  0
  5 21  1  0  0  0  0
  5 43  1  0  0  0  0
  5 44  1  0  0  0  0
  6  7  1  0  0  0  0
  6  8  1  0  0  0  0
  6 22  1  0  0  0  0
  7 11  1  0  0  0  0
  7 23  1  0  0  0  0
  7 24  1  0  0  0  0
  8 25  1  0  0  0  0
  8 26  1  0  0  0  0
  9 13  1  0  0  0  0
  9 27  1  0  0  0  0
  9 28  1  0  0  0  0
 10 14  1  0  0  0  0
 10 29  1  0  0  0  0
 10 30  1  0  0  0  0
 11 12  2  0  0  0  0
 11 15  1  0  0  0  0
 12 16  1  0  0  0  0
 13 19  1  0  0  0  0
 13 31  1  0  0  0  0
 13 32  1  0  0  0  0
 14 20  1  0  0  0  0
 14 33  1  0  0  0  0
 14 34  1  0  0  0  0
 15 18  2  0  0  0  0
 15 35  1  0  0  0  0
 16 17  2  0  0  0  0
 17 18  1  0  0  0  0
 18 36  1  0  0  0  0
 19 37  1  0  0  0  0
 19 38  1  0  0  0  0
 19 39  1  0  0  0  0
 20 40  1  0  0  0  0
 20 41  1  0  0  0  0
 20 42  1  0  0  0  0
M  END
> <PUBCHEM_COMPOUND_CID>
10590717

> <PUBCHEM_COMPOUND_CANONICALIZED>
1

> <PUBCHEM_CACTVS_COMPLEXITY>
338

> <PUBCHEM_CACTVS_HBOND_ACCEPTOR>
5

> <PUBCHEM_CACTVS_HBOND_DONOR>
1

> <PUBCHEM_CACTVS_ROTATABLE_BOND>
5

> <PUBCHEM_CACTVS_SUBSKEYS>
AAADceB7IABAAAAAAAAAAAAAAAAAAWAAAAA0QAAAAAAAAFiR8AAAHgQQAAAADCzh3gYz17NIFAikAyRiZASD+KlhaDlImDwtTJiOJqLksZuHOCjkwBPY6CewwKAOEAAARAAIEQAgAACIABAiAAAAAAAAAA==

> <PUBCHEM_IUPAC_OPENEYE_NAME>
N7,N7-dipropyl-7,8-dihydro-6H-pyrano[2,3-e][1,3]benzothiazole-2,7-diamine

> <PUBCHEM_IUPAC_CAS_NAME>
N7,N7-dipropyl-7,8-dihydro-6H-pyrano[2,3-e][1,3]benzothiazole-2,7-diamine

> <PUBCHEM_IUPAC_NAME_MARKUP>
7-<I>N</I>,7-<I>N</I>-dipropyl-7,8-dihydro-6<I>H</I>-pyrano[2,3-e][1,3]benzothiazole-2,7-diamine

> <PUBCHEM_IUPAC_NAME>
7-N,7-N-dipropyl-7,8-dihydro-6H-pyrano[2,3-e][1,3]benzothiazole-2,7-diamine

> <PUBCHEM_IUPAC_SYSTEMATIC_NAME>
N7,N7-dipropyl-7,8-dihydro-6H-pyrano[2,3-e][1,3]benzothiazole-2,7-diamine

> <PUBCHEM_IUPAC_TRADITIONAL_NAME>
(2-amino-7,8-dihydro-6H-pyrano[2,3-e][1,3]benzothiazol-7-yl)-dipropyl-amine

> <PUBCHEM_IUPAC_INCHI>
InChI=1S/C16H23N3OS/c1-3-7-19(8-4-2)12-9-11-5-6-13-14(15(11)20-10-12)18-16(17)21-13/h5-6,12H,3-4,7-10H2,1-2H3,(H2,17,18)

> <PUBCHEM_IUPAC_INCHIKEY>
NFIBVHPLILJWFU-UHFFFAOYSA-N

> <PUBCHEM_XLOGP3_AA>
3.9

> <PUBCHEM_EXACT_MASS>
305.15618354

> <PUBCHEM_MOLECULAR_FORMULA>
C16H23N3OS

> <PUBCHEM_MOLECULAR_WEIGHT>
305.4

> <PUBCHEM_OPENEYE_CAN_SMILES>
CCCN(CCC)C1CC2=C(C3=C(C=C2)SC(=N3)N)OC1

> <PUBCHEM_OPENEYE_ISO_SMILES>
CCCN(CCC)C1CC2=C(C3=C(C=C2)SC(=N3)N)OC1

> <PUBCHEM_CACTVS_TPSA>
79.6

> <PUBCHEM_MONOISOTOPIC_WEIGHT>
305.15618354

> <PUBCHEM_TOTAL_CHARGE>
0

> <PUBCHEM_HEAVY_ATOM_COUNT>
21

> <PUBCHEM_ATOM_DEF_STEREO_COUNT>
0

> <PUBCHEM_ATOM_UDEF_STEREO_COUNT>
1

> <PUBCHEM_BOND_DEF_STEREO_COUNT>
0

> <PUBCHEM_BOND_UDEF_STEREO_COUNT>
0

> <PUBCHEM_ISOTOPIC_ATOM_COUNT>
0

> <PUBCHEM_COMPONENT_COUNT>
1

> <PUBCHEM_CACTVS_TAUTO_COUNT>
-1

> <PUBCHEM_COORDINATE_TYPE>
1
5
255

> <PUBCHEM_BONDANNOTATIONS>
1  17  8
1  21  8
11  12  8
11  15  8
12  16  8
15  18  8
16  17  8
17  18  8
6  3  3
4  16  8
4  21  8

$$$$
