42618195
  -OEChem-09292322082D

 61 63  0     0  0  0  0  0  0999 V2000
    2.0000   -3.9065    0.0000 O   0  0  0  0  0  0  0  0  0  0  0  0
    5.4641   -3.9065    0.0000 O   0  0  0  0  0  0  0  0  0  0  0  0
    6.7870    4.7003    0.0000 O   0  0  0  0  0  0  0  0  0  0  0  0
    4.5981   -0.4065    0.0000 N   0  0  0  0  0  0  0  0  0  0  0  0
    3.7320   -1.9065    0.0000 N   0  0  0  0  0  0  0  0  0  0  0  0
    5.5443   -0.7112    0.0000 N   0  0  0  0  0  0  0  0  0  0  0  0
    3.7320    1.0935    0.0000 N   0  0  0  0  0  0  0  0  0  0  0  0
    2.8660   -0.4065    0.0000 N   0  0  0  0  0  0  0  0  0  0  0  0
    5.5443    0.8982    0.0000 C   0  0  0  0  0  0  0  0  0  0  0  0
    4.5981    0.5935    0.0000 C   0  0  0  0  0  0  0  0  0  0  0  0
    3.7320   -0.9065    0.0000 C   0  0  0  0  0  0  0  0  0  0  0  0
    5.8550    1.8487    0.0000 C   0  0  0  0  0  0  0  0  0  0  0  0
    6.1279    0.0935    0.0000 C   0  0  0  0  0  0  0  0  0  0  0  0
    2.8660   -2.4065    0.0000 C   0  0  0  0  0  0  0  0  0  0  0  0
    4.5981   -2.4065    0.0000 C   0  0  0  0  0  0  0  0  0  0  0  0
    6.8335    2.0550    0.0000 C   0  0  0  0  0  0  0  0  0  0  0  0
    5.1871    2.5930    0.0000 C   0  0  0  0  0  0  0  0  0  0  0  0
    2.8660   -3.4065    0.0000 C   0  0  0  0  0  0  0  0  0  0  0  0
    4.5981   -3.4065    0.0000 C   0  0  0  0  0  0  0  0  0  0  0  0
    2.8660    0.5935    0.0000 C   0  0  0  0  0  0  0  0  0  0  0  0
    5.4978    3.5436    0.0000 C   0  0  0  0  0  0  0  0  0  0  0  0
    7.1279    0.0935    0.0000 C   0  0  0  0  0  0  0  0  0  0  0  0
    7.1441    3.0055    0.0000 C   0  0  0  0  0  0  0  0  0  0  0  0
    6.4763    3.7498    0.0000 C   0  0  0  0  0  0  0  0  0  0  0  0
    7.5013    1.3107    0.0000 C   0  0  0  0  0  0  0  0  0  0  0  0
    2.0000    1.0935    0.0000 C   0  0  0  0  0  0  0  0  0  0  0  0
    4.8299    4.2879    0.0000 C   0  0  0  0  0  0  0  0  0  0  0  0
    2.0000   -4.9065    0.0000 C   0  0  0  0  0  0  0  0  0  0  0  0
    5.4641   -4.9065    0.0000 C   0  0  0  0  0  0  0  0  0  0  0  0
    7.7654    4.9065    0.0000 C   0  0  0  0  0  0  0  0  0  0  0  0
    2.6540   -1.8239    0.0000 H   0  0  0  0  0  0  0  0  0  0  0  0
    2.2554   -2.5142    0.0000 H   0  0  0  0  0  0  0  0  0  0  0  0
    5.2087   -2.5142    0.0000 H   0  0  0  0  0  0  0  0  0  0  0  0
    4.8101   -1.8239    0.0000 H   0  0  0  0  0  0  0  0  0  0  0  0
    4.5804    2.4652    0.0000 H   0  0  0  0  0  0  0  0  0  0  0  0
    3.0781   -3.9891    0.0000 H   0  0  0  0  0  0  0  0  0  0  0  0
    3.4766   -3.2988    0.0000 H   0  0  0  0  0  0  0  0  0  0  0  0
    3.9875   -3.2988    0.0000 H   0  0  0  0  0  0  0  0  0  0  0  0
    4.3860   -3.9891    0.0000 H   0  0  0  0  0  0  0  0  0  0  0  0
    7.1279   -0.5265    0.0000 H   0  0  0  0  0  0  0  0  0  0  0  0
    7.7479    0.0935    0.0000 H   0  0  0  0  0  0  0  0  0  0  0  0
    7.1279    0.7135    0.0000 H   0  0  0  0  0  0  0  0  0  0  0  0
    7.7508    3.1333    0.0000 H   0  0  0  0  0  0  0  0  0  0  0  0
    7.0398    0.8966    0.0000 H   0  0  0  0  0  0  0  0  0  0  0  0
    7.9154    0.8492    0.0000 H   0  0  0  0  0  0  0  0  0  0  0  0
    7.9628    1.7247    0.0000 H   0  0  0  0  0  0  0  0  0  0  0  0
    2.3100    1.6304    0.0000 H   0  0  0  0  0  0  0  0  0  0  0  0
    1.4631    1.4035    0.0000 H   0  0  0  0  0  0  0  0  0  0  0  0
    1.6900    0.5565    0.0000 H   0  0  0  0  0  0  0  0  0  0  0  0
    5.2914    4.7019    0.0000 H   0  0  0  0  0  0  0  0  0  0  0  0
    4.4159    4.7493    0.0000 H   0  0  0  0  0  0  0  0  0  0  0  0
    4.3685    3.8738    0.0000 H   0  0  0  0  0  0  0  0  0  0  0  0
    1.3800   -4.9065    0.0000 H   0  0  0  0  0  0  0  0  0  0  0  0
    2.0000   -5.5265    0.0000 H   0  0  0  0  0  0  0  0  0  0  0  0
    2.6200   -4.9065    0.0000 H   0  0  0  0  0  0  0  0  0  0  0  0
    4.8441   -4.9065    0.0000 H   0  0  0  0  0  0  0  0  0  0  0  0
    5.4641   -5.5265    0.0000 H   0  0  0  0  0  0  0  0  0  0  0  0
    6.0841   -4.9065    0.0000 H   0  0  0  0  0  0  0  0  0  0  0  0
    7.8933    4.2998    0.0000 H   0  0  0  0  0  0  0  0  0  0  0  0
    8.3721    5.0344    0.0000 H   0  0  0  0  0  0  0  0  0  0  0  0
    7.6376    5.5132    0.0000 H   0  0  0  0  0  0  0  0  0  0  0  0
  1 18  1  0  0  0  0
  1 28  1  0  0  0  0
  2 19  1  0  0  0  0
  2 29  1  0  0  0  0
  3 24  1  0  0  0  0
  3 30  1  0  0  0  0
  4  6  1  0  0  0  0
  4 10  1  0  0  0  0
  4 11  1  0  0  0  0
  5 11  1  0  0  0  0
  5 14  1  0  0  0  0
  5 15  1  0  0  0  0
  6 13  2  0  0  0  0
  7 10  1  0  0  0  0
  7 20  2  0  0  0  0
  8 11  2  0  0  0  0
  8 20  1  0  0  0  0
  9 10  2  0  0  0  0
  9 12  1  0  0  0  0
  9 13  1  0  0  0  0
 12 16  2  0  0  0  0
 12 17  1  0  0  0  0
 13 22  1  0  0  0  0
 14 18  1  0  0  0  0
 14 31  1  0  0  0  0
 14 32  1  0  0  0  0
 15 19  1  0  0  0  0
 15 33  1  0  0  0  0
 15 34  1  0  0  0  0
 16 23  1  0  0  0  0
 16 25  1  0  0  0  0
 17 21  2  0  0  0  0
 17 35  1  0  0  0  0
 18 36  1  0  0  0  0
 18 37  1  0  0  0  0
 19 38  1  0  0  0  0
 19 39  1  0  0  0  0
 20 26  1  0  0  0  0
 21 24  1  0  0  0  0
 21 27  1  0  0  0  0
 22 40  1  0  0  0  0
 22 41  1  0  0  0  0
 22 42  1  0  0  0  0
 23 24  2  0  0  0  0
 23 43  1  0  0  0  0
 25 44  1  0  0  0  0
 25 45  1  0  0  0  0
 25 46  1  0  0  0  0
 26 47  1  0  0  0  0
 26 48  1  0  0  0  0
 26 49  1  0  0  0  0
 27 50  1  0  0  0  0
 27 51  1  0  0  0  0
 27 52  1  0  0  0  0
 28 53  1  0  0  0  0
 28 54  1  0  0  0  0
 28 55  1  0  0  0  0
 29 56  1  0  0  0  0
 29 57  1  0  0  0  0
 29 58  1  0  0  0  0
 30 59  1  0  0  0  0
 30 60  1  0  0  0  0
 30 61  1  0  0  0  0
M  END
> <PUBCHEM_COMPOUND_CID>
42618195

> <PUBCHEM_COMPOUND_CANONICALIZED>
1

> <PUBCHEM_CACTVS_COMPLEXITY>
519

> <PUBCHEM_CACTVS_HBOND_ACCEPTOR>
7

> <PUBCHEM_CACTVS_HBOND_DONOR>
0

> <PUBCHEM_CACTVS_ROTATABLE_BOND>
9

> <PUBCHEM_CACTVS_SUBSKEYS>
AAADceB7sAAAAAAAAAAAAAAAAAAAAWAAAAA8QAAAAAAAAFgB8AAAHgAIAAAADAzhnwYztp8IFACiAyZiZACSjCshIKAVmCA+TJiOLiLE+duFtChsyBPY6CeQwPAO4AADAAAYAADAAAYAADAAAAAAAAAAAA==

> <PUBCHEM_IUPAC_OPENEYE_NAME>
8-(4-methoxy-2,5-dimethyl-phenyl)-N,N-bis(2-methoxyethyl)-2,7-dimethyl-pyrazolo[1,5-a][1,3,5]triazin-4-amine

> <PUBCHEM_IUPAC_CAS_NAME>
8-(4-methoxy-2,5-dimethylphenyl)-N,N-bis(2-methoxyethyl)-2,7-dimethyl-4-pyrazolo[1,5-a][1,3,5]triazinamine

> <PUBCHEM_IUPAC_NAME_MARKUP>
8-(4-methoxy-2,5-dimethylphenyl)-<I>N</I>,<I>N</I>-bis(2-methoxyethyl)-2,7-dimethylpyrazolo[1,5-a][1,3,5]triazin-4-amine

> <PUBCHEM_IUPAC_NAME>
8-(4-methoxy-2,5-dimethylphenyl)-N,N-bis(2-methoxyethyl)-2,7-dimethylpyrazolo[1,5-a][1,3,5]triazin-4-amine

> <PUBCHEM_IUPAC_SYSTEMATIC_NAME>
8-(4-methoxy-2,5-dimethyl-phenyl)-N,N-bis(2-methoxyethyl)-2,7-dimethyl-pyrazolo[1,5-a][1,3,5]triazin-4-amine

> <PUBCHEM_IUPAC_TRADITIONAL_NAME>
[8-(4-methoxy-2,5-dimethyl-phenyl)-2,7-dimethyl-pyrazolo[1,5-a][1,3,5]triazin-4-yl]-bis(2-methoxyethyl)amine

> <PUBCHEM_IUPAC_INCHI>
InChI=1S/C22H31N5O3/c1-14-13-19(30-7)15(2)12-18(14)20-16(3)25-27-21(20)23-17(4)24-22(27)26(8-10-28-5)9-11-29-6/h12-13H,8-11H2,1-7H3

> <PUBCHEM_IUPAC_INCHIKEY>
RPKIJOOZVCXURK-UHFFFAOYSA-N

> <PUBCHEM_XLOGP3_AA>
3.4

> <PUBCHEM_EXACT_MASS>
413.24268987

> <PUBCHEM_MOLECULAR_FORMULA>
C22H31N5O3

> <PUBCHEM_MOLECULAR_WEIGHT>
413.5

> <PUBCHEM_OPENEYE_CAN_SMILES>
CC1=CC(=C(C=C1OC)C)C2=C3N=C(N=C(N3N=C2C)N(CCOC)CCOC)C

> <PUBCHEM_OPENEYE_ISO_SMILES>
CC1=CC(=C(C=C1OC)C)C2=C3N=C(N=C(N3N=C2C)N(CCOC)CCOC)C

> <PUBCHEM_CACTVS_TPSA>
74

> <PUBCHEM_MONOISOTOPIC_WEIGHT>
413.24268987

> <PUBCHEM_TOTAL_CHARGE>
0

> <PUBCHEM_HEAVY_ATOM_COUNT>
30

> <PUBCHEM_ATOM_DEF_STEREO_COUNT>
0

> <PUBCHEM_ATOM_UDEF_STEREO_COUNT>
0

> <PUBCHEM_BOND_DEF_STEREO_COUNT>
0

> <PUBCHEM_BOND_UDEF_STEREO_COUNT>
0

> <PUBCHEM_ISOTOPIC_ATOM_COUNT>
0

> <PUBCHEM_COMPONENT_COUNT>
1

> <PUBCHEM_CACTVS_TAUTO_COUNT>
-1

> <PUBCHEM_COORDINATE_TYPE>
1
5
255

> <PUBCHEM_BONDANNOTATIONS>
12  16  8
12  17  8
16  23  8
17  21  8
21  24  8
23  24  8
4  10  8
4  11  8
4  6  8
6  13  8
7  10  8
7  20  8
8  11  8
8  20  8
9  10  8
9  13  8

$$$$
