44350796
  -OEChem-09292322112D

 86 90  0     0  0  0  0  0  0999 V2000
   13.6887    1.4030    0.0000 O   0  0  0  0  0  0  0  0  0  0  0  0
    2.6200    4.8671    0.0000 O   0  0  0  0  0  0  0  0  0  0  0  0
    9.4534    9.2690    0.0000 O   0  0  0  0  0  0  0  0  0  0  0  0
    6.8553    9.7690    0.0000 O   0  0  0  0  0  0  0  0  0  0  0  0
    8.5874   10.7690    0.0000 O   0  0  0  0  0  0  0  0  0  0  0  0
    7.7213    8.2690    0.0000 O   0  0  0  0  0  0  0  0  0  0  0  0
   10.6887    3.1350    0.0000 N   0  0  0  0  0  0  0  0  0  0  0  0
    5.6200    3.1350    0.0000 N   0  0  0  0  0  0  0  0  0  0  0  0
   12.6887    3.1350    0.0000 N   0  0  0  0  0  0  0  0  0  0  0  0
    3.6200    3.1350    0.0000 N   0  0  0  0  0  0  0  0  0  0  0  0
    8.1588    3.6350    0.0000 C   0  0  0  0  0  0  0  0  0  0  0  0
    8.1588    2.6350    0.0000 C   0  0  0  0  0  0  0  0  0  0  0  0
    9.6887    3.1350    0.0000 C   0  0  0  0  0  0  0  0  0  0  0  0
    6.6200    3.1350    0.0000 C   0  0  0  0  0  0  0  0  0  0  0  0
    9.1051    3.9397    0.0000 C   0  0  0  0  0  0  0  0  0  0  0  0
    9.1051    2.3303    0.0000 C   0  0  0  0  0  0  0  0  0  0  0  0
    7.2078    3.9440    0.0000 C   0  0  0  0  0  0  0  0  0  0  0  0
    7.2078    2.3260    0.0000 C   0  0  0  0  0  0  0  0  0  0  0  0
   11.1887    2.2690    0.0000 C   0  0  0  0  0  0  0  0  0  0  0  0
   11.1887    4.0010    0.0000 C   0  0  0  0  0  0  0  0  0  0  0  0
    5.1200    4.0010    0.0000 C   0  0  0  0  0  0  0  0  0  0  0  0
    5.1200    2.2690    0.0000 C   0  0  0  0  0  0  0  0  0  0  0  0
   12.1887    2.2690    0.0000 C   0  0  0  0  0  0  0  0  0  0  0  0
   12.1887    4.0010    0.0000 C   0  0  0  0  0  0  0  0  0  0  0  0
    4.1200    4.0010    0.0000 C   0  0  0  0  0  0  0  0  0  0  0  0
    4.1200    2.2690    0.0000 C   0  0  0  0  0  0  0  0  0  0  0  0
   13.6887    3.1350    0.0000 C   0  0  0  0  0  0  0  0  0  0  0  0
    2.6200    3.1350    0.0000 C   0  0  0  0  0  0  0  0  0  0  0  0
   14.1887    2.2690    0.0000 C   0  0  0  0  0  0  0  0  0  0  0  0
    2.1200    4.0010    0.0000 C   0  0  0  0  0  0  0  0  0  0  0  0
   14.1887    4.0010    0.0000 C   0  0  0  0  0  0  0  0  0  0  0  0
    2.1200    2.2690    0.0000 C   0  0  0  0  0  0  0  0  0  0  0  0
   15.1887    2.2690    0.0000 C   0  0  0  0  0  0  0  0  0  0  0  0
    1.1200    4.0010    0.0000 C   0  0  0  0  0  0  0  0  0  0  0  0
   15.1887    4.0010    0.0000 C   0  0  0  0  0  0  0  0  0  0  0  0
    1.1200    2.2690    0.0000 C   0  0  0  0  0  0  0  0  0  0  0  0
   15.6887    3.1350    0.0000 C   0  0  0  0  0  0  0  0  0  0  0  0
    0.6200    3.1350    0.0000 C   0  0  0  0  0  0  0  0  0  0  0  0
   14.1887    0.5369    0.0000 C   0  0  0  0  0  0  0  0  0  0  0  0
    2.1200    5.7331    0.0000 C   0  0  0  0  0  0  0  0  0  0  0  0
    8.5874    9.7690    0.0000 C   0  0  0  0  0  0  0  0  0  0  0  0
    7.7213    9.2690    0.0000 C   0  0  0  0  0  0  0  0  0  0  0  0
    8.1596    4.2550    0.0000 H   0  0  0  0  0  0  0  0  0  0  0  0
    8.1596    2.0150    0.0000 H   0  0  0  0  0  0  0  0  0  0  0  0
    9.9704    2.5827    0.0000 H   0  0  0  0  0  0  0  0  0  0  0  0
    6.3385    2.5826    0.0000 H   0  0  0  0  0  0  0  0  0  0  0  0
    9.6424    4.2490    0.0000 H   0  0  0  0  0  0  0  0  0  0  0  0
    8.8540    4.5066    0.0000 H   0  0  0  0  0  0  0  0  0  0  0  0
    8.8540    1.7634    0.0000 H   0  0  0  0  0  0  0  0  0  0  0  0
    9.6424    2.0210    0.0000 H   0  0  0  0  0  0  0  0  0  0  0  0
    7.4600    4.5104    0.0000 H   0  0  0  0  0  0  0  0  0  0  0  0
    6.6708    4.2540    0.0000 H   0  0  0  0  0  0  0  0  0  0  0  0
    6.6708    2.0160    0.0000 H   0  0  0  0  0  0  0  0  0  0  0  0
    7.4600    1.7596    0.0000 H   0  0  0  0  0  0  0  0  0  0  0  0
   10.6061    2.0569    0.0000 H   0  0  0  0  0  0  0  0  0  0  0  0
   11.2963    1.6584    0.0000 H   0  0  0  0  0  0  0  0  0  0  0  0
   11.2963    4.6116    0.0000 H   0  0  0  0  0  0  0  0  0  0  0  0
   10.6061    4.2131    0.0000 H   0  0  0  0  0  0  0  0  0  0  0  0
    5.7026    4.2131    0.0000 H   0  0  0  0  0  0  0  0  0  0  0  0
    5.0123    4.6116    0.0000 H   0  0  0  0  0  0  0  0  0  0  0  0
    5.0123    1.6584    0.0000 H   0  0  0  0  0  0  0  0  0  0  0  0
    5.7026    2.0569    0.0000 H   0  0  0  0  0  0  0  0  0  0  0  0
   12.0810    1.6584    0.0000 H   0  0  0  0  0  0  0  0  0  0  0  0
   12.7713    2.0569    0.0000 H   0  0  0  0  0  0  0  0  0  0  0  0
   12.7713    4.2131    0.0000 H   0  0  0  0  0  0  0  0  0  0  0  0
   12.0810    4.6116    0.0000 H   0  0  0  0  0  0  0  0  0  0  0  0
    4.2277    4.6116    0.0000 H   0  0  0  0  0  0  0  0  0  0  0  0
    3.5374    4.2131    0.0000 H   0  0  0  0  0  0  0  0  0  0  0  0
    3.5374    2.0569    0.0000 H   0  0  0  0  0  0  0  0  0  0  0  0
    4.2277    1.6584    0.0000 H   0  0  0  0  0  0  0  0  0  0  0  0
   13.8787    4.5380    0.0000 H   0  0  0  0  0  0  0  0  0  0  0  0
    2.4300    1.7320    0.0000 H   0  0  0  0  0  0  0  0  0  0  0  0
   15.4987    1.7320    0.0000 H   0  0  0  0  0  0  0  0  0  0  0  0
    0.8100    4.5380    0.0000 H   0  0  0  0  0  0  0  0  0  0  0  0
   15.4987    4.5380    0.0000 H   0  0  0  0  0  0  0  0  0  0  0  0
    0.8100    1.7320    0.0000 H   0  0  0  0  0  0  0  0  0  0  0  0
   16.3087    3.1350    0.0000 H   0  0  0  0  0  0  0  0  0  0  0  0
    0.0000    3.1350    0.0000 H   0  0  0  0  0  0  0  0  0  0  0  0
   13.6517    0.2269    0.0000 H   0  0  0  0  0  0  0  0  0  0  0  0
   14.4987    0.0000    0.0000 H   0  0  0  0  0  0  0  0  0  0  0  0
   14.7256    0.8469    0.0000 H   0  0  0  0  0  0  0  0  0  0  0  0
    2.6569    6.0431    0.0000 H   0  0  0  0  0  0  0  0  0  0  0  0
    1.8100    6.2700    0.0000 H   0  0  0  0  0  0  0  0  0  0  0  0
    1.5831    5.4231    0.0000 H   0  0  0  0  0  0  0  0  0  0  0  0
    9.9903    9.5790    0.0000 H   0  0  0  0  0  0  0  0  0  0  0  0
    6.3184    9.4590    0.0000 H   0  0  0  0  0  0  0  0  0  0  0  0
  1 29  1  0  0  0  0
  1 39  1  0  0  0  0
  2 30  1  0  0  0  0
  2 40  1  0  0  0  0
  3 41  1  0  0  0  0
  3 85  1  0  0  0  0
  4 42  1  0  0  0  0
  4 86  1  0  0  0  0
  5 41  2  0  0  0  0
  6 42  2  0  0  0  0
  7 13  1  0  0  0  0
  7 19  1  0  0  0  0
  7 20  1  0  0  0  0
  8 14  1  0  0  0  0
  8 21  1  0  0  0  0
  8 22  1  0  0  0  0
  9 23  1  0  0  0  0
  9 24  1  0  0  0  0
  9 27  1  0  0  0  0
 10 25  1  0  0  0  0
 10 26  1  0  0  0  0
 10 28  1  0  0  0  0
 11 12  1  0  0  0  0
 11 15  1  0  0  0  0
 11 17  1  0  0  0  0
 11 43  1  0  0  0  0
 12 16  1  0  0  0  0
 12 18  1  0  0  0  0
 12 44  1  0  0  0  0
 13 15  1  0  0  0  0
 13 16  1  0  0  0  0
 13 45  1  0  0  0  0
 14 17  1  0  0  0  0
 14 18  1  0  0  0  0
 14 46  1  0  0  0  0
 15 47  1  0  0  0  0
 15 48  1  0  0  0  0
 16 49  1  0  0  0  0
 16 50  1  0  0  0  0
 17 51  1  0  0  0  0
 17 52  1  0  0  0  0
 18 53  1  0  0  0  0
 18 54  1  0  0  0  0
 19 23  1  0  0  0  0
 19 55  1  0  0  0  0
 19 56  1  0  0  0  0
 20 24  1  0  0  0  0
 20 57  1  0  0  0  0
 20 58  1  0  0  0  0
 21 25  1  0  0  0  0
 21 59  1  0  0  0  0
 21 60  1  0  0  0  0
 22 26  1  0  0  0  0
 22 61  1  0  0  0  0
 22 62  1  0  0  0  0
 23 63  1  0  0  0  0
 23 64  1  0  0  0  0
 24 65  1  0  0  0  0
 24 66  1  0  0  0  0
 25 67  1  0  0  0  0
 25 68  1  0  0  0  0
 26 69  1  0  0  0  0
 26 70  1  0  0  0  0
 27 29  1  0  0  0  0
 27 31  2  0  0  0  0
 28 30  1  0  0  0  0
 28 32  2  0  0  0  0
 29 33  2  0  0  0  0
 30 34  2  0  0  0  0
 31 35  1  0  0  0  0
 31 71  1  0  0  0  0
 32 36  1  0  0  0  0
 32 72  1  0  0  0  0
 33 37  1  0  0  0  0
 33 73  1  0  0  0  0
 34 38  1  0  0  0  0
 34 74  1  0  0  0  0
 35 37  2  0  0  0  0
 35 75  1  0  0  0  0
 36 38  2  0  0  0  0
 36 76  1  0  0  0  0
 37 77  1  0  0  0  0
 38 78  1  0  0  0  0
 39 79  1  0  0  0  0
 39 80  1  0  0  0  0
 39 81  1  0  0  0  0
 40 82  1  0  0  0  0
 40 83  1  0  0  0  0
 40 84  1  0  0  0  0
 41 42  1  0  0  0  0
M  END
> <PUBCHEM_COMPOUND_CID>
44350796

> <PUBCHEM_COMPOUND_CANONICALIZED>
1

> <PUBCHEM_CACTVS_COMPLEXITY>
694

> <PUBCHEM_CACTVS_HBOND_ACCEPTOR>
10

> <PUBCHEM_CACTVS_HBOND_DONOR>
2

> <PUBCHEM_CACTVS_ROTATABLE_BOND>
7

> <PUBCHEM_CACTVS_SUBSKEYS>
AAADcfB/uAAAAAAAAAAAAAAAAAAAAYMAAAA8eIEAAAAYAAABQAAAHgAACAAADSzBkAYyzoMABgCIACTSSAKCCAAhIgAIiABPbIgPZiLEsZuVMChkwBHZ6AeQwIAOgAAAAAAAEAAAAAAAAAAgACAACAAAAA==

> <PUBCHEM_IUPAC_OPENEYE_NAME>
1-(2-methoxyphenyl)-4-[5-[4-(2-methoxyphenyl)piperazin-1-yl]-1,2,3,3a,4,5,6,6a-octahydropentalen-2-yl]piperazine;oxalic acid

> <PUBCHEM_IUPAC_CAS_NAME>
1-(2-methoxyphenyl)-4-[5-[4-(2-methoxyphenyl)-1-piperazinyl]-1,2,3,3a,4,5,6,6a-octahydropentalen-2-yl]piperazine;oxalic acid

> <PUBCHEM_IUPAC_NAME_MARKUP>
1-(2-methoxyphenyl)-4-[5-[4-(2-methoxyphenyl)piperazin-1-yl]-1,2,3,3<I>a</I>,4,5,6,6<I>a</I>-octahydropentalen-2-yl]piperazine;oxalic acid

> <PUBCHEM_IUPAC_NAME>
1-(2-methoxyphenyl)-4-[5-[4-(2-methoxyphenyl)piperazin-1-yl]-1,2,3,3a,4,5,6,6a-octahydropentalen-2-yl]piperazine;oxalic acid

> <PUBCHEM_IUPAC_SYSTEMATIC_NAME>
ethanedioic acid;1-(2-methoxyphenyl)-4-[5-[4-(2-methoxyphenyl)piperazin-1-yl]-1,2,3,3a,4,5,6,6a-octahydropentalen-2-yl]piperazine

> <PUBCHEM_IUPAC_TRADITIONAL_NAME>
1-(2-methoxyphenyl)-4-[5-[4-(2-methoxyphenyl)piperazino]-1,2,3,3a,4,5,6,6a-octahydropentalen-2-yl]piperazine;oxalic acid

> <PUBCHEM_IUPAC_INCHI>
InChI=1S/C30H42N4O2.C2H2O4/c1-35-29-9-5-3-7-27(29)33-15-11-31(12-16-33)25-19-23-21-26(22-24(23)20-25)32-13-17-34(18-14-32)28-8-4-6-10-30(28)36-2;3-1(4)2(5)6/h3-10,23-26H,11-22H2,1-2H3;(H,3,4)(H,5,6)

> <PUBCHEM_IUPAC_INCHIKEY>
PARFVJJHJKETMO-UHFFFAOYSA-N

> <PUBCHEM_EXACT_MASS>
580.32608514

> <PUBCHEM_MOLECULAR_FORMULA>
C32H44N4O6

> <PUBCHEM_MOLECULAR_WEIGHT>
580.7

> <PUBCHEM_OPENEYE_CAN_SMILES>
COC1=CC=CC=C1N2CCN(CC2)C3CC4CC(CC4C3)N5CCN(CC5)C6=CC=CC=C6OC.C(=O)(C(=O)O)O

> <PUBCHEM_OPENEYE_ISO_SMILES>
COC1=CC=CC=C1N2CCN(CC2)C3CC4CC(CC4C3)N5CCN(CC5)C6=CC=CC=C6OC.C(=O)(C(=O)O)O

> <PUBCHEM_CACTVS_TPSA>
106

> <PUBCHEM_MONOISOTOPIC_WEIGHT>
580.32608514

> <PUBCHEM_TOTAL_CHARGE>
0

> <PUBCHEM_HEAVY_ATOM_COUNT>
42

> <PUBCHEM_ATOM_DEF_STEREO_COUNT>
0

> <PUBCHEM_ATOM_UDEF_STEREO_COUNT>
0

> <PUBCHEM_BOND_DEF_STEREO_COUNT>
0

> <PUBCHEM_BOND_UDEF_STEREO_COUNT>
0

> <PUBCHEM_ISOTOPIC_ATOM_COUNT>
0

> <PUBCHEM_COMPONENT_COUNT>
2

> <PUBCHEM_CACTVS_TAUTO_COUNT>
-1

> <PUBCHEM_COORDINATE_TYPE>
1
5
255

> <PUBCHEM_BONDANNOTATIONS>
27  29  8
27  31  8
28  30  8
28  32  8
29  33  8
30  34  8
31  35  8
32  36  8
33  37  8
34  38  8
35  37  8
36  38  8

$$$$
