145948564
  -OEChem-09292322022D

 48 49  0     1  0  0  0  0  0999 V2000
    9.3082    2.7745    0.0000 F   0  0  0  0  0  0  0  0  0  0  0  0
    7.9422    3.1406    0.0000 F   0  0  0  0  0  0  0  0  0  0  0  0
    8.3082    4.5066    0.0000 F   0  0  0  0  0  0  0  0  0  0  0  0
    5.9440    1.6200    0.0000 O   0  0  0  0  0  0  0  0  0  0  0  0
   10.5403    3.6406    0.0000 O   0  0  0  0  0  0  0  0  0  0  0  0
    9.6743    5.1406    0.0000 O   0  0  0  0  0  0  0  0  0  0  0  0
    1.6821    5.1200    0.0000 N   0  0  3  0  0  0  0  0  0  0  0  0
    2.1821    7.3106    0.0000 N   0  0  0  0  0  0  0  0  0  0  0  0
    4.3604    0.8153    0.0000 N   0  0  0  0  0  0  0  0  0  0  0  0
    0.7811    5.5539    0.0000 C   0  0  0  0  0  0  0  0  0  0  0  0
    1.6821    4.1200    0.0000 C   0  0  0  0  0  0  0  0  0  0  0  0
    2.5831    5.5539    0.0000 C   0  0  0  0  0  0  0  0  0  0  0  0
    0.5586    6.5288    0.0000 C   0  0  0  0  0  0  0  0  0  0  0  0
    2.5481    3.6200    0.0000 C   0  0  0  0  0  0  0  0  0  0  0  0
    2.8056    6.5288    0.0000 C   0  0  0  0  0  0  0  0  0  0  0  0
    1.1821    7.3106    0.0000 C   0  0  0  0  0  0  0  0  0  0  0  0
    2.5481    2.6200    0.0000 C   0  0  0  0  0  0  0  0  0  0  0  0
    3.4141    2.1200    0.0000 C   0  0  0  0  0  0  0  0  0  0  0  0
    4.3604    2.4247    0.0000 C   0  0  0  0  0  0  0  0  0  0  0  0
    3.4141    1.1200    0.0000 C   0  0  0  0  0  0  0  0  0  0  0  0
    1.6821    2.1200    0.0000 C   0  0  0  0  0  0  0  0  0  0  0  0
    4.9440    1.6200    0.0000 C   0  0  0  0  0  0  0  0  0  0  0  0
    2.5481    0.6200    0.0000 C   0  0  0  0  0  0  0  0  0  0  0  0
    1.6821    1.1200    0.0000 C   0  0  0  0  0  0  0  0  0  0  0  0
    8.8082    3.6406    0.0000 C   0  0  0  0  0  0  0  0  0  0  0  0
    9.6743    4.1406    0.0000 C   0  0  0  0  0  0  0  0  0  0  0  0
    0.1611    5.5539    0.0000 H   0  0  0  0  0  0  0  0  0  0  0  0
    0.6432    4.9494    0.0000 H   0  0  0  0  0  0  0  0  0  0  0  0
    1.0715    4.2277    0.0000 H   0  0  0  0  0  0  0  0  0  0  0  0
    1.4700    3.5374    0.0000 H   0  0  0  0  0  0  0  0  0  0  0  0
    2.7210    4.9494    0.0000 H   0  0  0  0  0  0  0  0  0  0  0  0
    3.2031    5.5539    0.0000 H   0  0  0  0  0  0  0  0  0  0  0  0
    0.1720    7.0136    0.0000 H   0  0  0  0  0  0  0  0  0  0  0  0
    0.0000    6.2598    0.0000 H   0  0  0  0  0  0  0  0  0  0  0  0
    3.1587    3.5123    0.0000 H   0  0  0  0  0  0  0  0  0  0  0  0
    2.7602    4.2026    0.0000 H   0  0  0  0  0  0  0  0  0  0  0  0
    3.3642    6.2598    0.0000 H   0  0  0  0  0  0  0  0  0  0  0  0
    3.1921    7.0136    0.0000 H   0  0  0  0  0  0  0  0  0  0  0  0
    1.3200    7.9151    0.0000 H   0  0  0  0  0  0  0  0  0  0  0  0
    0.6235    7.5796    0.0000 H   0  0  0  0  0  0  0  0  0  0  0  0
    2.4511    7.8692    0.0000 H   0  0  0  0  0  0  0  0  0  0  0  0
    4.8977    2.7340    0.0000 H   0  0  0  0  0  0  0  0  0  0  0  0
    4.1093    2.9916    0.0000 H   0  0  0  0  0  0  0  0  0  0  0  0
    1.1451    2.4300    0.0000 H   0  0  0  0  0  0  0  0  0  0  0  0
    4.5530    0.2259    0.0000 H   0  0  0  0  0  0  0  0  0  0  0  0
    2.5481    0.0000    0.0000 H   0  0  0  0  0  0  0  0  0  0  0  0
    1.1451    0.8100    0.0000 H   0  0  0  0  0  0  0  0  0  0  0  0
   11.0772    3.9506    0.0000 H   0  0  0  0  0  0  0  0  0  0  0  0
  1 25  1  0  0  0  0
  2 25  1  0  0  0  0
  3 25  1  0  0  0  0
  4 22  2  0  0  0  0
  5 26  1  0  0  0  0
  5 48  1  0  0  0  0
  6 26  2  0  0  0  0
  7 10  1  0  0  0  0
  7 11  1  0  0  0  0
  7 12  1  0  0  0  0
  8 15  1  0  0  0  0
  8 16  1  0  0  0  0
  8 41  1  0  0  0  0
  9 20  1  0  0  0  0
  9 22  1  0  0  0  0
  9 45  1  0  0  0  0
 10 13  1  0  0  0  0
 10 27  1  0  0  0  0
 10 28  1  0  0  0  0
 11 14  1  0  0  0  0
 11 29  1  0  0  0  0
 11 30  1  0  0  0  0
 12 15  1  0  0  0  0
 12 31  1  0  0  0  0
 12 32  1  0  0  0  0
 13 16  1  0  0  0  0
 13 33  1  0  0  0  0
 13 34  1  0  0  0  0
 14 17  1  0  0  0  0
 14 35  1  0  0  0  0
 14 36  1  0  0  0  0
 15 37  1  0  0  0  0
 15 38  1  0  0  0  0
 16 39  1  0  0  0  0
 16 40  1  0  0  0  0
 17 18  2  0  0  0  0
 17 21  1  0  0  0  0
 18 19  1  0  0  0  0
 18 20  1  0  0  0  0
 19 22  1  0  0  0  0
 19 42  1  0  0  0  0
 19 43  1  0  0  0  0
 20 23  2  0  0  0  0
 21 24  2  0  0  0  0
 21 44  1  0  0  0  0
 23 24  1  0  0  0  0
 23 46  1  0  0  0  0
 24 47  1  0  0  0  0
 25 26  1  0  0  0  0
M  END
> <PUBCHEM_COMPOUND_CID>
145948564

> <PUBCHEM_COMPOUND_CANONICALIZED>
1

> <PUBCHEM_CACTVS_COMPLEXITY>
404

> <PUBCHEM_CACTVS_HBOND_ACCEPTOR>
8

> <PUBCHEM_CACTVS_HBOND_DONOR>
3

> <PUBCHEM_CACTVS_ROTATABLE_BOND>
3

> <PUBCHEM_CACTVS_SUBSKEYS>
AAADceB7MYAAAAAAAAAAAAAAAAAAAWAAAAAwAAAABYAAAFgBAAAAHwAQCAAADAjBmBQwyIPAAgCIAiXSWACCAAAhAgAIiIEIZIgIYDLA1ZGUIAhglADIyAcciICOgAAAQAASAAAAAACAACQAAAAAAAAAAA==

> <PUBCHEM_IUPAC_OPENEYE_NAME>
4-[2-(1,4-diazepan-1-yl)ethyl]indolin-2-one;2,2,2-trifluoroacetic acid

> <PUBCHEM_IUPAC_CAS_NAME>
4-[2-(1,4-diazepan-1-yl)ethyl]-1,3-dihydroindol-2-one;2,2,2-trifluoroacetic acid

> <PUBCHEM_IUPAC_NAME_MARKUP>
4-[2-(1,4-diazepan-1-yl)ethyl]-1,3-dihydroindol-2-one;2,2,2-trifluoroacetic acid

> <PUBCHEM_IUPAC_NAME>
4-[2-(1,4-diazepan-1-yl)ethyl]-1,3-dihydroindol-2-one;2,2,2-trifluoroacetic acid

> <PUBCHEM_IUPAC_SYSTEMATIC_NAME>
4-[2-(1,4-diazepan-1-yl)ethyl]-1,3-dihydroindol-2-one;2,2,2-tris(fluoranyl)ethanoic acid

> <PUBCHEM_IUPAC_TRADITIONAL_NAME>
4-[2-(1,4-diazepan-1-yl)ethyl]oxindole;2,2,2-trifluoroacetic acid

> <PUBCHEM_IUPAC_INCHI>
InChI=1S/C15H21N3O.C2HF3O2/c19-15-11-13-12(3-1-4-14(13)17-15)5-9-18-8-2-6-16-7-10-18;3-2(4,5)1(6)7/h1,3-4,16H,2,5-11H2,(H,17,19);(H,6,7)

> <PUBCHEM_IUPAC_INCHIKEY>
WGOPZYFQRISBNY-UHFFFAOYSA-N

> <PUBCHEM_EXACT_MASS>
373.16132606

> <PUBCHEM_MOLECULAR_FORMULA>
C17H22F3N3O3

> <PUBCHEM_MOLECULAR_WEIGHT>
373.4

> <PUBCHEM_OPENEYE_CAN_SMILES>
C1CNCCN(C1)CCC2=C3CC(=O)NC3=CC=C2.C(=O)(C(F)(F)F)O

> <PUBCHEM_OPENEYE_ISO_SMILES>
C1CNCCN(C1)CCC2=C3CC(=O)NC3=CC=C2.C(=O)(C(F)(F)F)O

> <PUBCHEM_CACTVS_TPSA>
81.7

> <PUBCHEM_MONOISOTOPIC_WEIGHT>
373.16132606

> <PUBCHEM_TOTAL_CHARGE>
0

> <PUBCHEM_HEAVY_ATOM_COUNT>
26

> <PUBCHEM_ATOM_DEF_STEREO_COUNT>
0

> <PUBCHEM_ATOM_UDEF_STEREO_COUNT>
0

> <PUBCHEM_BOND_DEF_STEREO_COUNT>
0

> <PUBCHEM_BOND_UDEF_STEREO_COUNT>
0

> <PUBCHEM_ISOTOPIC_ATOM_COUNT>
0

> <PUBCHEM_COMPONENT_COUNT>
2

> <PUBCHEM_CACTVS_TAUTO_COUNT>
-1

> <PUBCHEM_COORDINATE_TYPE>
1
5
255

> <PUBCHEM_BONDANNOTATIONS>
17  18  8
17  21  8
18  20  8
20  23  8
21  24  8
23  24  8

$$$$
