24060
  -OEChem-09292322452D

 40 41  0     0  0  0  0  0  0999 V2000
    6.5000   -0.8660    0.0000 N   0  0  0  0  0  0  0  0  0  0  0  0
    2.0000    0.0000    0.0000 N   0  0  0  0  0  0  0  0  0  0  0  0
    4.0000    0.0000    0.0000 C   0  0  0  0  0  0  0  0  0  0  0  0
    5.0000    0.0000    0.0000 C   0  0  0  0  0  0  0  0  0  0  0  0
    5.5000   -0.8660    0.0000 C   0  0  0  0  0  0  0  0  0  0  0  0
    4.0000   -1.0000    0.0000 C   0  0  0  0  0  0  0  0  0  0  0  0
    4.0000    1.0000    0.0000 C   0  0  0  0  0  0  0  0  0  0  0  0
    3.0000    0.0000    0.0000 C   0  0  0  0  0  0  0  0  0  0  0  0
    4.8660   -1.5000    0.0000 C   0  0  0  0  0  0  0  0  0  0  0  0
    3.1340    1.5000    0.0000 C   0  0  0  0  0  0  0  0  0  0  0  0
    3.1340   -1.5000    0.0000 C   0  0  0  0  0  0  0  0  0  0  0  0
    4.8660    1.5000    0.0000 C   0  0  0  0  0  0  0  0  0  0  0  0
    7.0000   -1.7320    0.0000 C   0  0  0  0  0  0  0  0  0  0  0  0
    7.0000    0.0000    0.0000 C   0  0  0  0  0  0  0  0  0  0  0  0
    4.8660   -2.5000    0.0000 C   0  0  0  0  0  0  0  0  0  0  0  0
    3.1340    2.5000    0.0000 C   0  0  0  0  0  0  0  0  0  0  0  0
    3.1340   -2.5000    0.0000 C   0  0  0  0  0  0  0  0  0  0  0  0
    4.8660    2.5000    0.0000 C   0  0  0  0  0  0  0  0  0  0  0  0
    4.0000   -3.0000    0.0000 C   0  0  0  0  0  0  0  0  0  0  0  0
    4.0000    3.0000    0.0000 C   0  0  0  0  0  0  0  0  0  0  0  0
    5.5826    0.2121    0.0000 H   0  0  0  0  0  0  0  0  0  0  0  0
    4.8923    0.6106    0.0000 H   0  0  0  0  0  0  0  0  0  0  0  0
    4.9174   -1.0781    0.0000 H   0  0  0  0  0  0  0  0  0  0  0  0
    5.6077   -1.4766    0.0000 H   0  0  0  0  0  0  0  0  0  0  0  0
    5.4030   -1.1900    0.0000 H   0  0  0  0  0  0  0  0  0  0  0  0
    2.5970    1.1900    0.0000 H   0  0  0  0  0  0  0  0  0  0  0  0
    2.5970   -1.1900    0.0000 H   0  0  0  0  0  0  0  0  0  0  0  0
    5.4030    1.1900    0.0000 H   0  0  0  0  0  0  0  0  0  0  0  0
    6.4631   -2.0420    0.0000 H   0  0  0  0  0  0  0  0  0  0  0  0
    7.3100   -2.2690    0.0000 H   0  0  0  0  0  0  0  0  0  0  0  0
    7.5369   -1.4220    0.0000 H   0  0  0  0  0  0  0  0  0  0  0  0
    7.5369   -0.3100    0.0000 H   0  0  0  0  0  0  0  0  0  0  0  0
    7.3100    0.5369    0.0000 H   0  0  0  0  0  0  0  0  0  0  0  0
    6.4631    0.3100    0.0000 H   0  0  0  0  0  0  0  0  0  0  0  0
    5.4030   -2.8100    0.0000 H   0  0  0  0  0  0  0  0  0  0  0  0
    2.5970    2.8100    0.0000 H   0  0  0  0  0  0  0  0  0  0  0  0
    2.5970   -2.8100    0.0000 H   0  0  0  0  0  0  0  0  0  0  0  0
    5.4030    2.8100    0.0000 H   0  0  0  0  0  0  0  0  0  0  0  0
    4.0000   -3.6200    0.0000 H   0  0  0  0  0  0  0  0  0  0  0  0
    4.0000    3.6200    0.0000 H   0  0  0  0  0  0  0  0  0  0  0  0
  1  5  1  0  0  0  0
  1 13  1  0  0  0  0
  1 14  1  0  0  0  0
  2  8  3  0  0  0  0
  3  4  1  0  0  0  0
  3  6  1  0  0  0  0
  3  7  1  0  0  0  0
  3  8  1  0  0  0  0
  4  5  1  0  0  0  0
  4 21  1  0  0  0  0
  4 22  1  0  0  0  0
  5 23  1  0  0  0  0
  5 24  1  0  0  0  0
  6  9  2  0  0  0  0
  6 11  1  0  0  0  0
  7 10  2  0  0  0  0
  7 12  1  0  0  0  0
  9 15  1  0  0  0  0
  9 25  1  0  0  0  0
 10 16  1  0  0  0  0
 10 26  1  0  0  0  0
 11 17  2  0  0  0  0
 11 27  1  0  0  0  0
 12 18  2  0  0  0  0
 12 28  1  0  0  0  0
 13 29  1  0  0  0  0
 13 30  1  0  0  0  0
 13 31  1  0  0  0  0
 14 32  1  0  0  0  0
 14 33  1  0  0  0  0
 14 34  1  0  0  0  0
 15 19  2  0  0  0  0
 15 35  1  0  0  0  0
 16 20  2  0  0  0  0
 16 36  1  0  0  0  0
 17 19  1  0  0  0  0
 17 37  1  0  0  0  0
 18 20  1  0  0  0  0
 18 38  1  0  0  0  0
 19 39  1  0  0  0  0
 20 40  1  0  0  0  0
M  END
> <PUBCHEM_COMPOUND_CID>
24060

> <PUBCHEM_COMPOUND_CANONICALIZED>
1

> <PUBCHEM_CACTVS_COMPLEXITY>
309

> <PUBCHEM_CACTVS_HBOND_ACCEPTOR>
2

> <PUBCHEM_CACTVS_HBOND_DONOR>
0

> <PUBCHEM_CACTVS_ROTATABLE_BOND>
5

> <PUBCHEM_CACTVS_SUBSKEYS>
AAADceB7AAAAAAAAAAAAAAAAAAAAAAAAAAAwYAAAAAAAAAABQAAAHAAAAAAADgDBGAQyAIMAAACQBiBCAAACAAAgAAAIiAAIAIgIoCKAkRCEIAAggAAIiA8QgMAPgAAAAAAAAAAAAAAAAAAAAAAAAAAAAA==

> <PUBCHEM_IUPAC_OPENEYE_NAME>
4-(dimethylamino)-2,2-diphenyl-butanenitrile

> <PUBCHEM_IUPAC_CAS_NAME>
4-(dimethylamino)-2,2-diphenylbutanenitrile

> <PUBCHEM_IUPAC_NAME_MARKUP>
4-(dimethylamino)-2,2-diphenylbutanenitrile

> <PUBCHEM_IUPAC_NAME>
4-(dimethylamino)-2,2-diphenylbutanenitrile

> <PUBCHEM_IUPAC_SYSTEMATIC_NAME>
4-(dimethylamino)-2,2-diphenyl-butanenitrile

> <PUBCHEM_IUPAC_TRADITIONAL_NAME>
4-(dimethylamino)-2,2-diphenyl-butyronitrile

> <PUBCHEM_IUPAC_INCHI>
InChI=1S/C18H20N2/c1-20(2)14-13-18(15-19,16-9-5-3-6-10-16)17-11-7-4-8-12-17/h3-12H,13-14H2,1-2H3

> <PUBCHEM_IUPAC_INCHIKEY>
SZOCKYDZSPRJPT-UHFFFAOYSA-N

> <PUBCHEM_XLOGP3_AA>
3.5

> <PUBCHEM_EXACT_MASS>
264.162648646

> <PUBCHEM_MOLECULAR_FORMULA>
C18H20N2

> <PUBCHEM_MOLECULAR_WEIGHT>
264.4

> <PUBCHEM_OPENEYE_CAN_SMILES>
CN(C)CCC(C#N)(C1=CC=CC=C1)C2=CC=CC=C2

> <PUBCHEM_OPENEYE_ISO_SMILES>
CN(C)CCC(C#N)(C1=CC=CC=C1)C2=CC=CC=C2

> <PUBCHEM_CACTVS_TPSA>
27

> <PUBCHEM_MONOISOTOPIC_WEIGHT>
264.162648646

> <PUBCHEM_TOTAL_CHARGE>
0

> <PUBCHEM_HEAVY_ATOM_COUNT>
20

> <PUBCHEM_ATOM_DEF_STEREO_COUNT>
0

> <PUBCHEM_ATOM_UDEF_STEREO_COUNT>
0

> <PUBCHEM_BOND_DEF_STEREO_COUNT>
0

> <PUBCHEM_BOND_UDEF_STEREO_COUNT>
0

> <PUBCHEM_ISOTOPIC_ATOM_COUNT>
0

> <PUBCHEM_COMPONENT_COUNT>
1

> <PUBCHEM_CACTVS_TAUTO_COUNT>
1

> <PUBCHEM_COORDINATE_TYPE>
1
5
255

> <PUBCHEM_BONDANNOTATIONS>
10  16  8
11  17  8
12  18  8
15  19  8
16  20  8
17  19  8
18  20  8
6  11  8
6  9  8
7  10  8
7  12  8
9  15  8

$$$$
