162669496
  -OEChem-09292322422D

 68 73  0     1  0  0  0  0  0999 V2000
    2.0000   -1.5150    0.0000 Cl  0  0  0  0  0  0  0  0  0  0  0  0
   13.2336   -1.3057    0.0000 O   0  0  0  0  0  0  0  0  0  0  0  0
   12.0329    1.9931    0.0000 O   0  0  0  0  0  0  0  0  0  0  0  0
   12.3768    0.2503    0.0000 N   0  0  0  0  0  0  0  0  0  0  0  0
    6.9122   -0.8170    0.0000 N   0  0  3  0  0  0  0  0  0  0  0  0
   13.9853    0.3037    0.0000 C   0  0  2  0  0  0  0  0  0  0  0  0
   13.6433    1.2434    0.0000 C   0  0  1  0  0  0  0  0  0  0  0  0
   15.3580    0.8957    0.0000 C   0  0  2  0  0  0  0  0  0  0  0  0
   15.6169    1.8616    0.0000 C   0  0  1  0  0  0  0  0  0  0  0  0
   14.8802    2.8443    0.0000 C   0  0  0  0  0  0  0  0  0  0  0  0
   13.2004   -0.3063    0.0000 C   0  0  0  0  0  0  0  0  0  0  0  0
   12.6499    1.2061    0.0000 C   0  0  0  0  0  0  0  0  0  0  0  0
   16.7570    0.3869    0.0000 C   0  0  0  0  0  0  0  0  0  0  0  0
   17.0158    1.3528    0.0000 C   0  0  0  0  0  0  0  0  0  0  0  0
   11.4371   -0.0917    0.0000 C   0  0  0  0  0  0  0  0  0  0  0  0
   10.6710    0.5511    0.0000 C   0  0  0  0  0  0  0  0  0  0  0  0
   11.2634   -1.0765    0.0000 C   0  0  0  0  0  0  0  0  0  0  0  0
    9.5577   -0.7758    0.0000 C   0  0  0  0  0  0  0  0  0  0  0  0
    9.7313    0.2091    0.0000 C   0  0  0  0  0  0  0  0  0  0  0  0
   10.3237   -1.4185    0.0000 C   0  0  0  0  0  0  0  0  0  0  0  0
    8.6180   -1.1178    0.0000 C   0  0  0  0  0  0  0  0  0  0  0  0
    7.8519   -0.4750    0.0000 C   0  0  0  0  0  0  0  0  0  0  0  0
    6.1964   -0.1188    0.0000 C   0  0  0  0  0  0  0  0  0  0  0  0
    6.8127   -1.8120    0.0000 C   0  0  0  0  0  0  0  0  0  0  0  0
    5.2041   -0.2431    0.0000 C   0  0  1  0  0  0  0  0  0  0  0  0
    5.9726   -2.3546    0.0000 C   0  0  0  0  0  0  0  0  0  0  0  0
    4.6827   -1.0964    0.0000 C   0  0  0  0  0  0  0  0  0  0  0  0
    5.0247   -2.0361    0.0000 C   0  0  0  0  0  0  0  0  0  0  0  0
    4.6616    0.5969    0.0000 C   0  0  0  0  0  0  0  0  0  0  0  0
    3.6598   -0.8997    0.0000 C   0  0  0  0  0  0  0  0  0  0  0  0
    4.3676   -2.8443    0.0000 C   0  0  0  0  0  0  0  0  0  0  0  0
    2.9841   -1.6925    0.0000 C   0  0  0  0  0  0  0  0  0  0  0  0
    3.3404   -2.6713    0.0000 C   0  0  0  0  0  0  0  0  0  0  0  0
   14.2761   -0.4950    0.0000 H   0  0  0  0  0  0  0  0  0  0  0  0
   13.3526    2.0421    0.0000 H   0  0  0  0  0  0  0  0  0  0  0  0
   15.1380    0.0747    0.0000 H   0  0  0  0  0  0  0  0  0  0  0  0
   15.8369    2.6827    0.0000 H   0  0  0  0  0  0  0  0  0  0  0  0
   15.1980    3.3766    0.0000 H   0  0  0  0  0  0  0  0  0  0  0  0
   14.2671    2.9362    0.0000 H   0  0  0  0  0  0  0  0  0  0  0  0
   17.0433   -0.1630    0.0000 H   0  0  0  0  0  0  0  0  0  0  0  0
   17.5657    1.6392    0.0000 H   0  0  0  0  0  0  0  0  0  0  0  0
   11.5447    0.5189    0.0000 H   0  0  0  0  0  0  0  0  0  0  0  0
   11.1460    0.9496    0.0000 H   0  0  0  0  0  0  0  0  0  0  0  0
   10.3610    1.0880    0.0000 H   0  0  0  0  0  0  0  0  0  0  0  0
   11.3711   -1.6871    0.0000 H   0  0  0  0  0  0  0  0  0  0  0  0
   11.8834   -1.0765    0.0000 H   0  0  0  0  0  0  0  0  0  0  0  0
    9.4500   -1.3863    0.0000 H   0  0  0  0  0  0  0  0  0  0  0  0
    9.6237    0.8196    0.0000 H   0  0  0  0  0  0  0  0  0  0  0  0
    9.1113    0.2091    0.0000 H   0  0  0  0  0  0  0  0  0  0  0  0
    9.8488   -1.8171    0.0000 H   0  0  0  0  0  0  0  0  0  0  0  0
   10.6337   -1.9555    0.0000 H   0  0  0  0  0  0  0  0  0  0  0  0
    8.1430   -1.5163    0.0000 H   0  0  0  0  0  0  0  0  0  0  0  0
    8.9280   -1.6547    0.0000 H   0  0  0  0  0  0  0  0  0  0  0  0
    8.3269   -0.0765    0.0000 H   0  0  0  0  0  0  0  0  0  0  0  0
    7.5419    0.0620    0.0000 H   0  0  0  0  0  0  0  0  0  0  0  0
    6.7172    0.2176    0.0000 H   0  0  0  0  0  0  0  0  0  0  0  0
    5.9843    0.4638    0.0000 H   0  0  0  0  0  0  0  0  0  0  0  0
    7.0247   -2.3946    0.0000 H   0  0  0  0  0  0  0  0  0  0  0  0
    7.4279   -1.7349    0.0000 H   0  0  0  0  0  0  0  0  0  0  0  0
    5.4662    0.3188    0.0000 H   0  0  0  0  0  0  0  0  0  0  0  0
    5.6494   -2.8836    0.0000 H   0  0  0  0  0  0  0  0  0  0  0  0
    6.4165   -2.7875    0.0000 H   0  0  0  0  0  0  0  0  0  0  0  0
    5.1824    0.9333    0.0000 H   0  0  0  0  0  0  0  0  0  0  0  0
    4.3252    1.1177    0.0000 H   0  0  0  0  0  0  0  0  0  0  0  0
    4.1408    0.2605    0.0000 H   0  0  0  0  0  0  0  0  0  0  0  0
    3.4545   -0.3147    0.0000 H   0  0  0  0  0  0  0  0  0  0  0  0
    4.5863   -3.4244    0.0000 H   0  0  0  0  0  0  0  0  0  0  0  0
    2.9437   -3.1478    0.0000 H   0  0  0  0  0  0  0  0  0  0  0  0
  1 32  1  0  0  0  0
  2 11  2  0  0  0  0
  3 12  2  0  0  0  0
  4 11  1  0  0  0  0
  4 12  1  0  0  0  0
  4 15  1  0  0  0  0
  5 22  1  0  0  0  0
  5 23  1  0  0  0  0
  5 24  1  0  0  0  0
  6  7  1  0  0  0  0
  6  8  1  0  0  0  0
  6 11  1  0  0  0  0
  6 34  1  1  0  0  0
  7  9  1  0  0  0  0
  7 12  1  0  0  0  0
  7 35  1  1  0  0  0
  8 10  1  0  0  0  0
  8 13  1  0  0  0  0
  8 36  1  1  0  0  0
  9 10  1  0  0  0  0
  9 14  1  0  0  0  0
  9 37  1  6  0  0  0
 10 38  1  0  0  0  0
 10 39  1  0  0  0  0
 13 14  2  0  0  0  0
 13 40  1  0  0  0  0
 14 41  1  0  0  0  0
 15 16  1  0  0  0  0
 15 17  1  0  0  0  0
 15 42  1  0  0  0  0
 16 19  1  0  0  0  0
 16 43  1  0  0  0  0
 16 44  1  0  0  0  0
 17 20  1  0  0  0  0
 17 45  1  0  0  0  0
 17 46  1  0  0  0  0
 18 19  1  0  0  0  0
 18 20  1  0  0  0  0
 18 21  1  0  0  0  0
 18 47  1  0  0  0  0
 19 48  1  0  0  0  0
 19 49  1  0  0  0  0
 20 50  1  0  0  0  0
 20 51  1  0  0  0  0
 21 22  1  0  0  0  0
 21 52  1  0  0  0  0
 21 53  1  0  0  0  0
 22 54  1  0  0  0  0
 22 55  1  0  0  0  0
 23 25  1  0  0  0  0
 23 56  1  0  0  0  0
 23 57  1  0  0  0  0
 24 26  1  0  0  0  0
 24 58  1  0  0  0  0
 24 59  1  0  0  0  0
 25 27  1  0  0  0  0
 25 29  1  1  0  0  0
 25 60  1  0  0  0  0
 26 28  1  0  0  0  0
 26 61  1  0  0  0  0
 26 62  1  0  0  0  0
 27 28  2  0  0  0  0
 27 30  1  0  0  0  0
 28 31  1  0  0  0  0
 29 63  1  0  0  0  0
 29 64  1  0  0  0  0
 29 65  1  0  0  0  0
 30 32  2  0  0  0  0
 30 66  1  0  0  0  0
 31 33  2  0  0  0  0
 31 67  1  0  0  0  0
 32 33  1  0  0  0  0
 33 68  1  0  0  0  0
M  END
> <PUBCHEM_COMPOUND_CID>
162669496

> <PUBCHEM_COMPOUND_CANONICALIZED>
1

> <PUBCHEM_CACTVS_COMPLEXITY>
776

> <PUBCHEM_CACTVS_HBOND_ACCEPTOR>
3

> <PUBCHEM_CACTVS_HBOND_DONOR>
0

> <PUBCHEM_CACTVS_ROTATABLE_BOND>
4

> <PUBCHEM_CACTVS_SUBSKEYS>
AAADcfB7MAAEAAAAAAAAAAAAAAAAAeIEAAAwYIAABYAWAAABAAAAHgIAAAAADSrBmCQyAIMAAACIAiFSEAACAAAgBQAIiAEIAogIIDKBkxGEIAAghiCIiAcdiMCOhAAAIAAQAAAYAABAACAAAQAACAAAAA==

> <PUBCHEM_IUPAC_OPENEYE_NAME>
(1R,2S,6R,7S)-4-[4-[2-[(5R)-7-chloro-5-methyl-1,2,4,5-tetrahydro-3-benzazepin-3-yl]ethyl]cyclohexyl]-4-azatricyclo[5.2.1.02,6]dec-8-ene-3,5-dione

> <PUBCHEM_IUPAC_CAS_NAME>
(1R,2S,6R,7S)-4-[4-[2-[(5R)-7-chloro-5-methyl-1,2,4,5-tetrahydro-3-benzazepin-3-yl]ethyl]cyclohexyl]-4-azatricyclo[5.2.1.02,6]dec-8-ene-3,5-dione

> <PUBCHEM_IUPAC_NAME_MARKUP>
(1<I>R</I>,2<I>S</I>,6<I>R</I>,7<I>S</I>)-4-[4-[2-[(5<I>R</I>)-7-chloro-5-methyl-1,2,4,5-tetrahydro-3-benzazepin-3-yl]ethyl]cyclohexyl]-4-azatricyclo[5.2.1.0<SUP>2,6</SUP>]dec-8-ene-3,5-dione

> <PUBCHEM_IUPAC_NAME>
(1R,2S,6R,7S)-4-[4-[2-[(5R)-7-chloro-5-methyl-1,2,4,5-tetrahydro-3-benzazepin-3-yl]ethyl]cyclohexyl]-4-azatricyclo[5.2.1.02,6]dec-8-ene-3,5-dione

> <PUBCHEM_IUPAC_SYSTEMATIC_NAME>
(1R,2S,6R,7S)-4-[4-[2-[(5R)-7-chloranyl-5-methyl-1,2,4,5-tetrahydro-3-benzazepin-3-yl]ethyl]cyclohexyl]-4-azatricyclo[5.2.1.02,6]dec-8-ene-3,5-dione

> <PUBCHEM_IUPAC_TRADITIONAL_NAME>
(1R,2S,6R,7S)-4-[4-[2-[(5R)-7-chloro-5-methyl-1,2,4,5-tetrahydro-3-benzazepin-3-yl]ethyl]cyclohexyl]-4-azatricyclo[5.2.1.02,6]dec-8-ene-3,5-quinone

> <PUBCHEM_IUPAC_INCHI>
InChI=1S/C28H35ClN2O2/c1-17-16-30(13-11-19-6-7-22(29)15-24(17)19)12-10-18-2-8-23(9-3-18)31-27(32)25-20-4-5-21(14-20)26(25)28(31)33/h4-7,15,17-18,20-21,23,25-26H,2-3,8-14,16H2,1H3/t17-,18?,20-,21+,23?,25-,26+/m0/s1

> <PUBCHEM_IUPAC_INCHIKEY>
MJWAVTIYFCPJPE-SKRBGQKISA-N

> <PUBCHEM_XLOGP3_AA>
5.1

> <PUBCHEM_EXACT_MASS>
466.2387061

> <PUBCHEM_MOLECULAR_FORMULA>
C28H35ClN2O2

> <PUBCHEM_MOLECULAR_WEIGHT>
467.0

> <PUBCHEM_OPENEYE_CAN_SMILES>
CC1CN(CCC2=C1C=C(C=C2)Cl)CCC3CCC(CC3)N4C(=O)C5C6CC(C5C4=O)C=C6

> <PUBCHEM_OPENEYE_ISO_SMILES>
C[C@H]1CN(CCC2=C1C=C(C=C2)Cl)CCC3CCC(CC3)N4C(=O)[C@H]5[C@@H]6C[C@H]([C@H]5C4=O)C=C6

> <PUBCHEM_CACTVS_TPSA>
40.6

> <PUBCHEM_MONOISOTOPIC_WEIGHT>
466.2387061

> <PUBCHEM_TOTAL_CHARGE>
0

> <PUBCHEM_HEAVY_ATOM_COUNT>
33

> <PUBCHEM_ATOM_DEF_STEREO_COUNT>
5

> <PUBCHEM_ATOM_UDEF_STEREO_COUNT>
0

> <PUBCHEM_BOND_DEF_STEREO_COUNT>
0

> <PUBCHEM_BOND_UDEF_STEREO_COUNT>
0

> <PUBCHEM_ISOTOPIC_ATOM_COUNT>
0

> <PUBCHEM_COMPONENT_COUNT>
1

> <PUBCHEM_CACTVS_TAUTO_COUNT>
-1

> <PUBCHEM_COORDINATE_TYPE>
1
5
255

> <PUBCHEM_BONDANNOTATIONS>
25  29  5
27  28  8
27  30  8
28  31  8
30  32  8
31  33  8
32  33  8
6  34  5
7  35  5
8  36  5
9  37  6

$$$$
