122191604
  -OEChem-09292322362D

 58 61  0     0  0  0  0  0  0999 V2000
   12.4133    4.0944    0.0000 O   0  0  0  0  0  0  0  0  0  0  0  0
    6.2781   -0.7388    0.0000 N   0  0  0  0  0  0  0  0  0  0  0  0
    6.8994    1.1622    0.0000 N   0  0  0  0  0  0  0  0  0  0  0  0
    8.4993    3.2695    0.0000 N   0  0  0  0  0  0  0  0  0  0  0  0
    4.6783   -4.4556    0.0000 N   0  0  0  0  0  0  0  0  0  0  0  0
    5.6103    0.0055    0.0000 C   0  0  0  0  0  0  0  0  0  0  0  0
    7.2566   -0.5326    0.0000 C   0  0  0  0  0  0  0  0  0  0  0  0
    5.9209    0.9560    0.0000 C   0  0  0  0  0  0  0  0  0  0  0  0
    7.5673    0.4179    0.0000 C   0  0  0  0  0  0  0  0  0  0  0  0
    5.9674   -1.6893    0.0000 C   0  0  0  0  0  0  0  0  0  0  0  0
    7.2101    2.1127    0.0000 C   0  0  0  0  0  0  0  0  0  0  0  0
    4.9889   -1.8956    0.0000 C   0  0  0  0  0  0  0  0  0  0  0  0
    8.1886    2.3190    0.0000 C   0  0  0  0  0  0  0  0  0  0  0  0
    4.6783   -2.8461    0.0000 C   0  0  0  0  0  0  0  0  0  0  0  0
    3.7320   -3.1508    0.0000 C   0  0  0  0  0  0  0  0  0  0  0  0
    5.2619   -3.6508    0.0000 C   0  0  0  0  0  0  0  0  0  0  0  0
    3.7320   -4.1508    0.0000 C   0  0  0  0  0  0  0  0  0  0  0  0
    2.8660   -2.6508    0.0000 C   0  0  0  0  0  0  0  0  0  0  0  0
    9.4778    3.4757    0.0000 C   0  0  0  0  0  0  0  0  0  0  0  0
    2.8660   -4.6508    0.0000 C   0  0  0  0  0  0  0  0  0  0  0  0
    2.0000   -3.1508    0.0000 C   0  0  0  0  0  0  0  0  0  0  0  0
    2.0000   -4.1508    0.0000 C   0  0  0  0  0  0  0  0  0  0  0  0
   10.1456    2.7314    0.0000 C   0  0  0  0  0  0  0  0  0  0  0  0
    9.7884    4.4262    0.0000 C   0  0  0  0  0  0  0  0  0  0  0  0
   11.1241    2.9376    0.0000 C   0  0  0  0  0  0  0  0  0  0  0  0
   10.7669    4.6324    0.0000 C   0  0  0  0  0  0  0  0  0  0  0  0
   11.4348    3.8881    0.0000 C   0  0  0  0  0  0  0  0  0  0  0  0
   12.7239    5.0449    0.0000 C   0  0  0  0  0  0  0  0  0  0  0  0
    5.0633    0.2975    0.0000 H   0  0  0  0  0  0  0  0  0  0  0  0
    5.2277   -0.4824    0.0000 H   0  0  0  0  0  0  0  0  0  0  0  0
    7.2772   -1.1523    0.0000 H   0  0  0  0  0  0  0  0  0  0  0  0
    7.8704   -0.6200    0.0000 H   0  0  0  0  0  0  0  0  0  0  0  0
    5.9004    1.5757    0.0000 H   0  0  0  0  0  0  0  0  0  0  0  0
    5.3071    1.0434    0.0000 H   0  0  0  0  0  0  0  0  0  0  0  0
    8.1142    0.1259    0.0000 H   0  0  0  0  0  0  0  0  0  0  0  0
    7.9498    0.9058    0.0000 H   0  0  0  0  0  0  0  0  0  0  0  0
    5.9880   -2.3090    0.0000 H   0  0  0  0  0  0  0  0  0  0  0  0
    6.5812   -1.7767    0.0000 H   0  0  0  0  0  0  0  0  0  0  0  0
    7.1895    2.7324    0.0000 H   0  0  0  0  0  0  0  0  0  0  0  0
    6.5963    2.2001    0.0000 H   0  0  0  0  0  0  0  0  0  0  0  0
    4.9684   -1.2759    0.0000 H   0  0  0  0  0  0  0  0  0  0  0  0
    4.3751   -1.8082    0.0000 H   0  0  0  0  0  0  0  0  0  0  0  0
    8.2092    1.6993    0.0000 H   0  0  0  0  0  0  0  0  0  0  0  0
    8.8024    2.2316    0.0000 H   0  0  0  0  0  0  0  0  0  0  0  0
    5.8819   -3.6508    0.0000 H   0  0  0  0  0  0  0  0  0  0  0  0
    8.0852    3.7309    0.0000 H   0  0  0  0  0  0  0  0  0  0  0  0
    4.8709   -5.0449    0.0000 H   0  0  0  0  0  0  0  0  0  0  0  0
    2.8660   -2.0308    0.0000 H   0  0  0  0  0  0  0  0  0  0  0  0
    2.8660   -5.2708    0.0000 H   0  0  0  0  0  0  0  0  0  0  0  0
    1.4631   -2.8408    0.0000 H   0  0  0  0  0  0  0  0  0  0  0  0
    1.4631   -4.4608    0.0000 H   0  0  0  0  0  0  0  0  0  0  0  0
    9.9530    2.1421    0.0000 H   0  0  0  0  0  0  0  0  0  0  0  0
    9.3744    4.8877    0.0000 H   0  0  0  0  0  0  0  0  0  0  0  0
   11.5382    2.4761    0.0000 H   0  0  0  0  0  0  0  0  0  0  0  0
   10.9595    5.2218    0.0000 H   0  0  0  0  0  0  0  0  0  0  0  0
   13.3133    4.8523    0.0000 H   0  0  0  0  0  0  0  0  0  0  0  0
   12.9166    5.6342    0.0000 H   0  0  0  0  0  0  0  0  0  0  0  0
   12.1346    5.2375    0.0000 H   0  0  0  0  0  0  0  0  0  0  0  0
  1 27  1  0  0  0  0
  1 28  1  0  0  0  0
  2  6  1  0  0  0  0
  2  7  1  0  0  0  0
  2 10  1  0  0  0  0
  3  8  1  0  0  0  0
  3  9  1  0  0  0  0
  3 11  1  0  0  0  0
  4 13  1  0  0  0  0
  4 19  1  0  0  0  0
  4 46  1  0  0  0  0
  5 16  1  0  0  0  0
  5 17  1  0  0  0  0
  5 47  1  0  0  0  0
  6  8  1  0  0  0  0
  6 29  1  0  0  0  0
  6 30  1  0  0  0  0
  7  9  1  0  0  0  0
  7 31  1  0  0  0  0
  7 32  1  0  0  0  0
  8 33  1  0  0  0  0
  8 34  1  0  0  0  0
  9 35  1  0  0  0  0
  9 36  1  0  0  0  0
 10 12  1  0  0  0  0
 10 37  1  0  0  0  0
 10 38  1  0  0  0  0
 11 13  1  0  0  0  0
 11 39  1  0  0  0  0
 11 40  1  0  0  0  0
 12 14  1  0  0  0  0
 12 41  1  0  0  0  0
 12 42  1  0  0  0  0
 13 43  1  0  0  0  0
 13 44  1  0  0  0  0
 14 15  1  0  0  0  0
 14 16  2  0  0  0  0
 15 17  1  0  0  0  0
 15 18  2  0  0  0  0
 16 45  1  0  0  0  0
 17 20  2  0  0  0  0
 18 21  1  0  0  0  0
 18 48  1  0  0  0  0
 19 23  2  0  0  0  0
 19 24  1  0  0  0  0
 20 22  1  0  0  0  0
 20 49  1  0  0  0  0
 21 22  2  0  0  0  0
 21 50  1  0  0  0  0
 22 51  1  0  0  0  0
 23 25  1  0  0  0  0
 23 52  1  0  0  0  0
 24 26  2  0  0  0  0
 24 53  1  0  0  0  0
 25 27  2  0  0  0  0
 25 54  1  0  0  0  0
 26 27  1  0  0  0  0
 26 55  1  0  0  0  0
 28 56  1  0  0  0  0
 28 57  1  0  0  0  0
 28 58  1  0  0  0  0
M  END
> <PUBCHEM_COMPOUND_CID>
122191604

> <PUBCHEM_COMPOUND_CANONICALIZED>
1

> <PUBCHEM_CACTVS_COMPLEXITY>
446

> <PUBCHEM_CACTVS_HBOND_ACCEPTOR>
4

> <PUBCHEM_CACTVS_HBOND_DONOR>
2

> <PUBCHEM_CACTVS_ROTATABLE_BOND>
8

> <PUBCHEM_CACTVS_SUBSKEYS>
AAADceB7oAAAAAAAAAAAAAAAAAAAAWAAAAA8YIAAAAAAAFgB9AAAHgAQAAAADAzBngY+xvPJlACgAzRnRACCiCAxIiAI2aA+bJgMZuLEsZuUMChk0BHI6AewwMAOgEAAAAACAAAAgAAAAAQAAAAAAAAAAA==

> <PUBCHEM_IUPAC_OPENEYE_NAME>
N-[2-[4-[2-(1H-indol-3-yl)ethyl]piperazin-1-yl]ethyl]-4-methoxy-aniline

> <PUBCHEM_IUPAC_CAS_NAME>
N-[2-[4-[2-(1H-indol-3-yl)ethyl]-1-piperazinyl]ethyl]-4-methoxyaniline

> <PUBCHEM_IUPAC_NAME_MARKUP>
<I>N</I>-[2-[4-[2-(1<I>H</I>-indol-3-yl)ethyl]piperazin-1-yl]ethyl]-4-methoxyaniline

> <PUBCHEM_IUPAC_NAME>
N-[2-[4-[2-(1H-indol-3-yl)ethyl]piperazin-1-yl]ethyl]-4-methoxyaniline

> <PUBCHEM_IUPAC_SYSTEMATIC_NAME>
N-[2-[4-[2-(1H-indol-3-yl)ethyl]piperazin-1-yl]ethyl]-4-methoxy-aniline

> <PUBCHEM_IUPAC_TRADITIONAL_NAME>
2-[4-[2-(1H-indol-3-yl)ethyl]piperazino]ethyl-(4-methoxyphenyl)amine

> <PUBCHEM_IUPAC_INCHI>
InChI=1S/C23H30N4O/c1-28-21-8-6-20(7-9-21)24-11-13-27-16-14-26(15-17-27)12-10-19-18-25-23-5-3-2-4-22(19)23/h2-9,18,24-25H,10-17H2,1H3

> <PUBCHEM_IUPAC_INCHIKEY>
JRCIDJCJKJDOSJ-UHFFFAOYSA-N

> <PUBCHEM_XLOGP3>
4

> <PUBCHEM_EXACT_MASS>
378.24196159

> <PUBCHEM_MOLECULAR_FORMULA>
C23H30N4O

> <PUBCHEM_MOLECULAR_WEIGHT>
378.5

> <PUBCHEM_OPENEYE_CAN_SMILES>
COC1=CC=C(C=C1)NCCN2CCN(CC2)CCC3=CNC4=CC=CC=C43

> <PUBCHEM_OPENEYE_ISO_SMILES>
COC1=CC=C(C=C1)NCCN2CCN(CC2)CCC3=CNC4=CC=CC=C43

> <PUBCHEM_CACTVS_TPSA>
43.5

> <PUBCHEM_MONOISOTOPIC_WEIGHT>
378.24196159

> <PUBCHEM_TOTAL_CHARGE>
0

> <PUBCHEM_HEAVY_ATOM_COUNT>
28

> <PUBCHEM_ATOM_DEF_STEREO_COUNT>
0

> <PUBCHEM_ATOM_UDEF_STEREO_COUNT>
0

> <PUBCHEM_BOND_DEF_STEREO_COUNT>
0

> <PUBCHEM_BOND_UDEF_STEREO_COUNT>
0

> <PUBCHEM_ISOTOPIC_ATOM_COUNT>
0

> <PUBCHEM_COMPONENT_COUNT>
1

> <PUBCHEM_CACTVS_TAUTO_COUNT>
-1

> <PUBCHEM_COORDINATE_TYPE>
1
5
255

> <PUBCHEM_BONDANNOTATIONS>
14  15  8
14  16  8
15  17  8
15  18  8
17  20  8
18  21  8
19  23  8
19  24  8
20  22  8
21  22  8
23  25  8
24  26  8
25  27  8
26  27  8
5  16  8
5  17  8

$$$$
