16759249
  -OEChem-09292322072D

 57 60  0     1  0  0  0  0  0999 V2000
    8.8230   -4.8085    0.0000 F   0  0  0  0  0  0  0  0  0  0  0  0
    2.0000   -3.6055    0.0000 F   0  0  0  0  0  0  0  0  0  0  0  0
    5.9324   -1.2526    0.0000 O   0  0  0  0  0  0  0  0  0  0  0  0
    8.4444    1.3444    0.0000 N   0  0  0  0  0  0  0  0  0  0  0  0
    8.9222   -0.6041    0.0000 C   0  0  3  0  0  0  0  0  0  0  0  0
    9.1810    0.3618    0.0000 C   0  0  3  0  0  0  0  0  0  0  0  0
   10.3211   -1.1129    0.0000 C   0  0  0  0  0  0  0  0  0  0  0  0
   10.5799   -0.1470    0.0000 C   0  0  0  0  0  0  0  0  0  0  0  0
    7.7012   -1.4698    0.0000 C   0  0  0  0  0  0  0  0  0  0  0  0
    7.1478    0.0507    0.0000 C   0  0  0  0  0  0  0  0  0  0  0  0
    6.8721   -0.9106    0.0000 C   0  0  0  0  0  0  0  0  0  0  0  0
    7.9444    2.2105    0.0000 C   0  0  0  0  0  0  0  0  0  0  0  0
    8.4444    3.0765    0.0000 C   0  0  0  0  0  0  0  0  0  0  0  0
    5.7588   -2.2374    0.0000 C   0  0  0  0  0  0  0  0  0  0  0  0
    7.9444    3.9425    0.0000 C   0  0  0  0  0  0  0  0  0  0  0  0
    6.5248   -2.8802    0.0000 C   0  0  0  0  0  0  0  0  0  0  0  0
    4.8191   -2.5794    0.0000 C   0  0  0  0  0  0  0  0  0  0  0  0
    8.4444    4.8085    0.0000 C   0  0  0  0  0  0  0  0  0  0  0  0
    7.4645   -2.5382    0.0000 C   0  0  0  0  0  0  0  0  0  0  0  0
    4.0530   -1.9366    0.0000 C   0  0  0  0  0  0  0  0  0  0  0  0
    6.3512   -3.8650    0.0000 C   0  0  0  0  0  0  0  0  0  0  0  0
    4.6454   -3.5642    0.0000 C   0  0  0  0  0  0  0  0  0  0  0  0
    8.2305   -3.1810    0.0000 C   0  0  0  0  0  0  0  0  0  0  0  0
    3.1133   -2.2786    0.0000 C   0  0  0  0  0  0  0  0  0  0  0  0
    7.1172   -4.5078    0.0000 C   0  0  0  0  0  0  0  0  0  0  0  0
    3.7057   -3.9062    0.0000 C   0  0  0  0  0  0  0  0  0  0  0  0
    8.0569   -4.1658    0.0000 C   0  0  0  0  0  0  0  0  0  0  0  0
    2.9397   -3.2635    0.0000 C   0  0  0  0  0  0  0  0  0  0  0  0
    9.0050   -1.2185    0.0000 H   0  0  0  0  0  0  0  0  0  0  0  0
    9.5504    0.8598    0.0000 H   0  0  0  0  0  0  0  0  0  0  0  0
   10.1262   -1.7015    0.0000 H   0  0  0  0  0  0  0  0  0  0  0  0
   10.9151   -1.2907    0.0000 H   0  0  0  0  0  0  0  0  0  0  0  0
   11.1739   -0.3248    0.0000 H   0  0  0  0  0  0  0  0  0  0  0  0
   10.7749    0.4416    0.0000 H   0  0  0  0  0  0  0  0  0  0  0  0
    7.2953   -1.9385    0.0000 H   0  0  0  0  0  0  0  0  0  0  0  0
    8.1178   -1.9289    0.0000 H   0  0  0  0  0  0  0  0  0  0  0  0
    7.1427    0.6707    0.0000 H   0  0  0  0  0  0  0  0  0  0  0  0
    6.5334    0.1345    0.0000 H   0  0  0  0  0  0  0  0  0  0  0  0
    6.4187   -0.4877    0.0000 H   0  0  0  0  0  0  0  0  0  0  0  0
    7.4694    2.6090    0.0000 H   0  0  0  0  0  0  0  0  0  0  0  0
    7.4694    1.8119    0.0000 H   0  0  0  0  0  0  0  0  0  0  0  0
    8.9193    2.6780    0.0000 H   0  0  0  0  0  0  0  0  0  0  0  0
    8.9193    3.4750    0.0000 H   0  0  0  0  0  0  0  0  0  0  0  0
    5.2838   -1.8389    0.0000 H   0  0  0  0  0  0  0  0  0  0  0  0
    7.4694    4.3410    0.0000 H   0  0  0  0  0  0  0  0  0  0  0  0
    7.4694    3.5440    0.0000 H   0  0  0  0  0  0  0  0  0  0  0  0
    8.9813    4.4985    0.0000 H   0  0  0  0  0  0  0  0  0  0  0  0
    8.7544    5.3455    0.0000 H   0  0  0  0  0  0  0  0  0  0  0  0
    7.9074    5.1185    0.0000 H   0  0  0  0  0  0  0  0  0  0  0  0
    7.5722   -1.9276    0.0000 H   0  0  0  0  0  0  0  0  0  0  0  0
    4.1607   -1.3260    0.0000 H   0  0  0  0  0  0  0  0  0  0  0  0
    5.7686   -4.0770    0.0000 H   0  0  0  0  0  0  0  0  0  0  0  0
    5.1204   -3.9628    0.0000 H   0  0  0  0  0  0  0  0  0  0  0  0
    8.8132   -2.9689    0.0000 H   0  0  0  0  0  0  0  0  0  0  0  0
    2.6384   -1.8801    0.0000 H   0  0  0  0  0  0  0  0  0  0  0  0
    7.0096   -5.1184    0.0000 H   0  0  0  0  0  0  0  0  0  0  0  0
    3.5981   -4.5168    0.0000 H   0  0  0  0  0  0  0  0  0  0  0  0
  1 27  1  0  0  0  0
  2 28  1  0  0  0  0
  3 11  1  0  0  0  0
  3 14  1  0  0  0  0
  4  5  1  0  0  0  0
  4  6  1  0  0  0  0
  4 12  1  0  0  0  0
  5  7  1  0  0  0  0
  5  9  1  0  0  0  0
  5 29  1  0  0  0  0
  6  8  1  0  0  0  0
  6 10  1  0  0  0  0
  6 30  1  0  0  0  0
  7  8  1  0  0  0  0
  7 31  1  0  0  0  0
  7 32  1  0  0  0  0
  8 33  1  0  0  0  0
  8 34  1  0  0  0  0
  9 11  1  0  0  0  0
  9 35  1  0  0  0  0
  9 36  1  0  0  0  0
 10 11  1  0  0  0  0
 10 37  1  0  0  0  0
 10 38  1  0  0  0  0
 11 39  1  0  0  0  0
 12 13  1  0  0  0  0
 12 40  1  0  0  0  0
 12 41  1  0  0  0  0
 13 15  1  0  0  0  0
 13 42  1  0  0  0  0
 13 43  1  0  0  0  0
 14 16  1  0  0  0  0
 14 17  1  0  0  0  0
 14 44  1  0  0  0  0
 15 18  1  0  0  0  0
 15 45  1  0  0  0  0
 15 46  1  0  0  0  0
 16 19  2  0  0  0  0
 16 21  1  0  0  0  0
 17 20  2  0  0  0  0
 17 22  1  0  0  0  0
 18 47  1  0  0  0  0
 18 48  1  0  0  0  0
 18 49  1  0  0  0  0
 19 23  1  0  0  0  0
 19 50  1  0  0  0  0
 20 24  1  0  0  0  0
 20 51  1  0  0  0  0
 21 25  2  0  0  0  0
 21 52  1  0  0  0  0
 22 26  2  0  0  0  0
 22 53  1  0  0  0  0
 23 27  2  0  0  0  0
 23 54  1  0  0  0  0
 24 28  2  0  0  0  0
 24 55  1  0  0  0  0
 25 27  1  0  0  0  0
 25 56  1  0  0  0  0
 26 28  1  0  0  0  0
 26 57  1  0  0  0  0
M  END
> <PUBCHEM_COMPOUND_CID>
16759249

> <PUBCHEM_COMPOUND_CANONICALIZED>
1

> <PUBCHEM_CACTVS_COMPLEXITY>
437

> <PUBCHEM_CACTVS_HBOND_ACCEPTOR>
4

> <PUBCHEM_CACTVS_HBOND_DONOR>
0

> <PUBCHEM_CACTVS_ROTATABLE_BOND>
7

> <PUBCHEM_CACTVS_SUBSKEYS>
AAADceB6IYAAAAAAAAAAAAAAAAAAAWAAAAA8YIAABgAAAAABQAAAHwAAAAAADDzhmA4yAIMABACAAiBCAAACAAAgAAAIiAAICIgIJiKAsRiGMAAmwAGIqAeQwOAOAAAAAAAAAAAAAAAAAAAAAAAAAAAAAA==

> <PUBCHEM_IUPAC_OPENEYE_NAME>
3-[bis(4-fluorophenyl)methoxy]-8-butyl-8-azabicyclo[3.2.1]octane

> <PUBCHEM_IUPAC_CAS_NAME>
3-[bis(4-fluorophenyl)methoxy]-8-butyl-8-azabicyclo[3.2.1]octane

> <PUBCHEM_IUPAC_NAME_MARKUP>
3-[bis(4-fluorophenyl)methoxy]-8-butyl-8-azabicyclo[3.2.1]octane

> <PUBCHEM_IUPAC_NAME>
3-[bis(4-fluorophenyl)methoxy]-8-butyl-8-azabicyclo[3.2.1]octane

> <PUBCHEM_IUPAC_SYSTEMATIC_NAME>
3-[bis(4-fluorophenyl)methoxy]-8-butyl-8-azabicyclo[3.2.1]octane

> <PUBCHEM_IUPAC_TRADITIONAL_NAME>
3-[bis(4-fluorophenyl)methoxy]-8-butyl-8-azabicyclo[3.2.1]octane

> <PUBCHEM_IUPAC_INCHI>
InChI=1S/C24H29F2NO/c1-2-3-14-27-21-12-13-22(27)16-23(15-21)28-24(17-4-8-19(25)9-5-17)18-6-10-20(26)11-7-18/h4-11,21-24H,2-3,12-16H2,1H3

> <PUBCHEM_IUPAC_INCHIKEY>
HZEVDVGPBUFIAW-UHFFFAOYSA-N

> <PUBCHEM_XLOGP3_AA>
5.9

> <PUBCHEM_EXACT_MASS>
385.22172087

> <PUBCHEM_MOLECULAR_FORMULA>
C24H29F2NO

> <PUBCHEM_MOLECULAR_WEIGHT>
385.5

> <PUBCHEM_OPENEYE_CAN_SMILES>
CCCCN1C2CCC1CC(C2)OC(C3=CC=C(C=C3)F)C4=CC=C(C=C4)F

> <PUBCHEM_OPENEYE_ISO_SMILES>
CCCCN1C2CCC1CC(C2)OC(C3=CC=C(C=C3)F)C4=CC=C(C=C4)F

> <PUBCHEM_CACTVS_TPSA>
12.5

> <PUBCHEM_MONOISOTOPIC_WEIGHT>
385.22172087

> <PUBCHEM_TOTAL_CHARGE>
0

> <PUBCHEM_HEAVY_ATOM_COUNT>
28

> <PUBCHEM_ATOM_DEF_STEREO_COUNT>
0

> <PUBCHEM_ATOM_UDEF_STEREO_COUNT>
2

> <PUBCHEM_BOND_DEF_STEREO_COUNT>
0

> <PUBCHEM_BOND_UDEF_STEREO_COUNT>
0

> <PUBCHEM_ISOTOPIC_ATOM_COUNT>
0

> <PUBCHEM_COMPONENT_COUNT>
1

> <PUBCHEM_CACTVS_TAUTO_COUNT>
-1

> <PUBCHEM_COORDINATE_TYPE>
1
5
255

> <PUBCHEM_BONDANNOTATIONS>
16  19  8
16  21  8
17  20  8
17  22  8
19  23  8
20  24  8
21  25  8
22  26  8
23  27  8
24  28  8
25  27  8
26  28  8
5  7  3
6  8  3

$$$$
