45264565
  -OEChem-09292322192D

 55 57  0     1  0  0  0  0  0999 V2000
    5.3784    0.0000    0.0000 Cl  0  0  0  0  0  0  0  0  0  0  0  0
    0.6200    2.5000    0.0000 F   0  0  0  0  0  0  0  0  0  0  0  0
    7.7078    7.7532    0.0000 O   0  0  0  0  0  0  0  0  0  0  0  0
    7.3988   10.3223    0.0000 O   0  0  0  0  0  0  0  0  0  0  0  0
    2.1200    6.8301    0.0000 O   0  0  0  0  0  0  0  0  0  0  0  0
    5.6200    7.6962    0.0000 N   0  0  3  0  0  0  0  0  0  0  0  0
    7.1200    8.5622    0.0000 C   0  0  3  0  0  0  0  0  0  0  0  0
    6.6200    7.6962    0.0000 C   0  0  0  0  0  0  0  0  0  0  0  0
    6.6200    9.4282    0.0000 C   0  0  0  0  0  0  0  0  0  0  0  0
    5.6200    9.4282    0.0000 C   0  0  0  0  0  0  0  0  0  0  0  0
    5.1200    8.5622    0.0000 C   0  0  0  0  0  0  0  0  0  0  0  0
    7.7078    9.3712    0.0000 C   0  0  0  0  0  0  0  0  0  0  0  0
    5.1200    6.8301    0.0000 C   0  0  0  0  0  0  0  0  0  0  0  0
    8.6588    8.0622    0.0000 C   0  0  0  0  0  0  0  0  0  0  0  0
    8.6588    9.0622    0.0000 C   0  0  0  0  0  0  0  0  0  0  0  0
    4.1200    6.8301    0.0000 C   0  0  0  0  0  0  0  0  0  0  0  0
    3.6200    5.9641    0.0000 C   0  0  0  0  0  0  0  0  0  0  0  0
    9.4679    7.4744    0.0000 C   0  0  0  0  0  0  0  0  0  0  0  0
    2.6200    5.9641    0.0000 C   0  0  0  0  0  0  0  0  0  0  0  0
   10.3814    7.8811    0.0000 C   0  0  0  0  0  0  0  0  0  0  0  0
    9.3633    6.4799    0.0000 C   0  0  0  0  0  0  0  0  0  0  0  0
    2.1200    5.0981    0.0000 C   0  0  0  0  0  0  0  0  0  0  0  0
   11.1904    7.2933    0.0000 C   0  0  0  0  0  0  0  0  0  0  0  0
   10.1723    5.8921    0.0000 C   0  0  0  0  0  0  0  0  0  0  0  0
   11.0859    6.2988    0.0000 C   0  0  0  0  0  0  0  0  0  0  0  0
    2.6200    4.2320    0.0000 C   0  0  0  0  0  0  0  0  0  0  0  0
    1.1200    5.0981    0.0000 C   0  0  0  0  0  0  0  0  0  0  0  0
    2.1200    3.3660    0.0000 C   0  0  0  0  0  0  0  0  0  0  0  0
    0.6200    4.2320    0.0000 C   0  0  0  0  0  0  0  0  0  0  0  0
    1.1200    3.3660    0.0000 C   0  0  0  0  0  0  0  0  0  0  0  0
    6.5123    7.0856    0.0000 H   0  0  0  0  0  0  0  0  0  0  0  0
    7.2026    7.4841    0.0000 H   0  0  0  0  0  0  0  0  0  0  0  0
    7.2026    9.6403    0.0000 H   0  0  0  0  0  0  0  0  0  0  0  0
    6.5123   10.0388    0.0000 H   0  0  0  0  0  0  0  0  0  0  0  0
    5.7277   10.0388    0.0000 H   0  0  0  0  0  0  0  0  0  0  0  0
    5.0374    9.6403    0.0000 H   0  0  0  0  0  0  0  0  0  0  0  0
    4.6450    8.9607    0.0000 H   0  0  0  0  0  0  0  0  0  0  0  0
    4.6450    8.1636    0.0000 H   0  0  0  0  0  0  0  0  0  0  0  0
    5.0123    6.2196    0.0000 H   0  0  0  0  0  0  0  0  0  0  0  0
    5.7026    6.6181    0.0000 H   0  0  0  0  0  0  0  0  0  0  0  0
    9.1604    9.4266    0.0000 H   0  0  0  0  0  0  0  0  0  0  0  0
    4.2277    7.4407    0.0000 H   0  0  0  0  0  0  0  0  0  0  0  0
    3.5374    7.0422    0.0000 H   0  0  0  0  0  0  0  0  0  0  0  0
    3.5123    5.3535    0.0000 H   0  0  0  0  0  0  0  0  0  0  0  0
    4.2026    5.7520    0.0000 H   0  0  0  0  0  0  0  0  0  0  0  0
   10.4462    8.4977    0.0000 H   0  0  0  0  0  0  0  0  0  0  0  0
    8.7969    6.2277    0.0000 H   0  0  0  0  0  0  0  0  0  0  0  0
   11.7568    7.5455    0.0000 H   0  0  0  0  0  0  0  0  0  0  0  0
   10.1075    5.2755    0.0000 H   0  0  0  0  0  0  0  0  0  0  0  0
   11.5875    5.9344    0.0000 H   0  0  0  0  0  0  0  0  0  0  0  0
    3.2400    4.2320    0.0000 H   0  0  0  0  0  0  0  0  0  0  0  0
    0.8100    5.6350    0.0000 H   0  0  0  0  0  0  0  0  0  0  0  0
    2.4300    2.8291    0.0000 H   0  0  0  0  0  0  0  0  0  0  0  0
    0.0000    4.2320    0.0000 H   0  0  0  0  0  0  0  0  0  0  0  0
    6.3784    0.0000    0.0000 H   0  0  0  0  0  0  0  0  0  0  0  0
  1 55  1  0  0  0  0
  2 30  1  0  0  0  0
  3  7  1  0  0  0  0
  3 14  1  0  0  0  0
  4 12  2  0  0  0  0
  5 19  2  0  0  0  0
  6  8  1  0  0  0  0
  6 11  1  0  0  0  0
  6 13  1  0  0  0  0
  7  8  1  0  0  0  0
  7  9  1  0  0  0  0
  7 12  1  0  0  0  0
  8 31  1  0  0  0  0
  8 32  1  0  0  0  0
  9 10  1  0  0  0  0
  9 33  1  0  0  0  0
  9 34  1  0  0  0  0
 10 11  1  0  0  0  0
 10 35  1  0  0  0  0
 10 36  1  0  0  0  0
 11 37  1  0  0  0  0
 11 38  1  0  0  0  0
 12 15  1  0  0  0  0
 13 16  1  0  0  0  0
 13 39  1  0  0  0  0
 13 40  1  0  0  0  0
 14 15  2  0  0  0  0
 14 18  1  0  0  0  0
 15 41  1  0  0  0  0
 16 17  1  0  0  0  0
 16 42  1  0  0  0  0
 16 43  1  0  0  0  0
 17 19  1  0  0  0  0
 17 44  1  0  0  0  0
 17 45  1  0  0  0  0
 18 20  2  0  0  0  0
 18 21  1  0  0  0  0
 19 22  1  0  0  0  0
 20 23  1  0  0  0  0
 20 46  1  0  0  0  0
 21 24  2  0  0  0  0
 21 47  1  0  0  0  0
 22 26  2  0  0  0  0
 22 27  1  0  0  0  0
 23 25  2  0  0  0  0
 23 48  1  0  0  0  0
 24 25  1  0  0  0  0
 24 49  1  0  0  0  0
 25 50  1  0  0  0  0
 26 28  1  0  0  0  0
 26 51  1  0  0  0  0
 27 29  2  0  0  0  0
 27 52  1  0  0  0  0
 28 30  2  0  0  0  0
 28 53  1  0  0  0  0
 29 30  1  0  0  0  0
 29 54  1  0  0  0  0
M  END
> <PUBCHEM_COMPOUND_CID>
45264565

> <PUBCHEM_COMPOUND_CANONICALIZED>
1

> <PUBCHEM_CACTVS_COMPLEXITY>
634

> <PUBCHEM_CACTVS_HBOND_ACCEPTOR>
5

> <PUBCHEM_CACTVS_HBOND_DONOR>
1

> <PUBCHEM_CACTVS_ROTATABLE_BOND>
6

> <PUBCHEM_CACTVS_SUBSKEYS>
AAADceB6MQAEAAAAAAAAAAAAAAAAAQAAAAA8YIAAAAAAAAABQAAAHwAAAAAADETBmAwwAIMABACIAqBSAAICCAAkIAAIiAFICMgKJjqAtRyHMQAkwAGYqYe8yaCOAAAAAAAAAAAAAAAAAAAAAAAAAAAAAA==

> <PUBCHEM_IUPAC_OPENEYE_NAME>
9-[4-(4-fluorophenyl)-4-oxo-butyl]-2-phenyl-1-oxa-9-azaspiro[4.5]dec-2-en-4-one;hydrochloride

> <PUBCHEM_IUPAC_CAS_NAME>
9-[4-(4-fluorophenyl)-4-oxobutyl]-2-phenyl-1-oxa-9-azaspiro[4.5]dec-2-en-4-one;hydrochloride

> <PUBCHEM_IUPAC_NAME_MARKUP>
9-[4-(4-fluorophenyl)-4-oxobutyl]-2-phenyl-1-oxa-9-azaspiro[4.5]dec-2-en-4-one;hydrochloride

> <PUBCHEM_IUPAC_NAME>
9-[4-(4-fluorophenyl)-4-oxobutyl]-2-phenyl-1-oxa-9-azaspiro[4.5]dec-2-en-4-one;hydrochloride

> <PUBCHEM_IUPAC_SYSTEMATIC_NAME>
9-[4-(4-fluorophenyl)-4-oxidanylidene-butyl]-2-phenyl-1-oxa-9-azaspiro[4.5]dec-2-en-4-one;hydrochloride

> <PUBCHEM_IUPAC_TRADITIONAL_NAME>
9-[4-(4-fluorophenyl)-4-keto-butyl]-2-phenyl-1-oxa-9-azaspiro[4.5]dec-2-en-4-one;hydrochloride

> <PUBCHEM_IUPAC_INCHI>
InChI=1S/C24H24FNO3.ClH/c25-20-11-9-18(10-12-20)21(27)8-4-14-26-15-5-13-24(17-26)23(28)16-22(29-24)19-6-2-1-3-7-19;/h1-3,6-7,9-12,16H,4-5,8,13-15,17H2;1H

> <PUBCHEM_IUPAC_INCHIKEY>
CRDNDRRYAPDCFI-UHFFFAOYSA-N

> <PUBCHEM_EXACT_MASS>
429.1506995

> <PUBCHEM_MOLECULAR_FORMULA>
C24H25ClFNO3

> <PUBCHEM_MOLECULAR_WEIGHT>
429.9

> <PUBCHEM_OPENEYE_CAN_SMILES>
C1CC2(CN(C1)CCCC(=O)C3=CC=C(C=C3)F)C(=O)C=C(O2)C4=CC=CC=C4.Cl

> <PUBCHEM_OPENEYE_ISO_SMILES>
C1CC2(CN(C1)CCCC(=O)C3=CC=C(C=C3)F)C(=O)C=C(O2)C4=CC=CC=C4.Cl

> <PUBCHEM_CACTVS_TPSA>
46.6

> <PUBCHEM_MONOISOTOPIC_WEIGHT>
429.1506995

> <PUBCHEM_TOTAL_CHARGE>
0

> <PUBCHEM_HEAVY_ATOM_COUNT>
30

> <PUBCHEM_ATOM_DEF_STEREO_COUNT>
0

> <PUBCHEM_ATOM_UDEF_STEREO_COUNT>
1

> <PUBCHEM_BOND_DEF_STEREO_COUNT>
0

> <PUBCHEM_BOND_UDEF_STEREO_COUNT>
0

> <PUBCHEM_ISOTOPIC_ATOM_COUNT>
0

> <PUBCHEM_COMPONENT_COUNT>
2

> <PUBCHEM_CACTVS_TAUTO_COUNT>
-1

> <PUBCHEM_COORDINATE_TYPE>
1
5
255

> <PUBCHEM_BONDANNOTATIONS>
18  20  8
18  21  8
20  23  8
21  24  8
22  26  8
22  27  8
23  25  8
24  25  8
26  28  8
27  29  8
28  30  8
29  30  8
7  9  3

$$$$
