11638332
  -OEChem-09292322492D

 32 34  0     1  0  0  0  0  0999 V2000
    3.7817    1.8273    0.0000 Cl  0  0  0  0  0  0  0  0  0  0  0  0
    2.0000   -1.2314    0.0000 Cl  0  0  0  0  0  0  0  0  0  0  0  0
    5.5301    1.7927    0.0000 O   0  0  0  0  0  0  0  0  0  0  0  0
    7.2622   -1.2073    0.0000 O   0  0  0  0  0  0  0  0  0  0  0  0
    5.5301   -1.2073    0.0000 N   0  0  0  0  0  0  0  0  0  0  0  0
    6.3961    0.2927    0.0000 C   0  0  3  0  0  0  0  0  0  0  0  0
    5.5301    0.7927    0.0000 C   0  0  0  0  0  0  0  0  0  0  0  0
    7.3962    0.2927    0.0000 C   0  0  0  0  0  0  0  0  0  0  0  0
    6.3961   -0.7073    0.0000 C   0  0  0  0  0  0  0  0  0  0  0  0
    6.8962    1.1587    0.0000 C   0  0  0  0  0  0  0  0  0  0  0  0
    4.6641    0.2927    0.0000 C   0  0  0  0  0  0  0  0  0  0  0  0
    4.6641   -0.7073    0.0000 C   0  0  0  0  0  0  0  0  0  0  0  0
    7.8962    1.1587    0.0000 C   0  0  0  0  0  0  0  0  0  0  0  0
    7.8962   -0.5733    0.0000 C   0  0  0  0  0  0  0  0  0  0  0  0
    3.7702    0.8274    0.0000 C   0  0  0  0  0  0  0  0  0  0  0  0
    3.7702   -1.2420    0.0000 C   0  0  0  0  0  0  0  0  0  0  0  0
    2.8641    0.3135    0.0000 C   0  0  0  0  0  0  0  0  0  0  0  0
    2.8641   -0.7281    0.0000 C   0  0  0  0  0  0  0  0  0  0  0  0
    8.8962    1.1587    0.0000 C   0  0  0  0  0  0  0  0  0  0  0  0
    8.8962   -0.5733    0.0000 C   0  0  0  0  0  0  0  0  0  0  0  0
    9.3962    0.2927    0.0000 C   0  0  0  0  0  0  0  0  0  0  0  0
    7.4331    0.8487    0.0000 H   0  0  0  0  0  0  0  0  0  0  0  0
    7.2062    1.6957    0.0000 H   0  0  0  0  0  0  0  0  0  0  0  0
    6.3592    1.4687    0.0000 H   0  0  0  0  0  0  0  0  0  0  0  0
    5.5301   -1.8273    0.0000 H   0  0  0  0  0  0  0  0  0  0  0  0
    7.5862    1.6957    0.0000 H   0  0  0  0  0  0  0  0  0  0  0  0
    7.5862   -1.1103    0.0000 H   0  0  0  0  0  0  0  0  0  0  0  0
    3.7773   -1.8619    0.0000 H   0  0  0  0  0  0  0  0  0  0  0  0
    2.3284    0.6256    0.0000 H   0  0  0  0  0  0  0  0  0  0  0  0
    9.2061    1.6957    0.0000 H   0  0  0  0  0  0  0  0  0  0  0  0
    9.2061   -1.1103    0.0000 H   0  0  0  0  0  0  0  0  0  0  0  0
   10.0162    0.2927    0.0000 H   0  0  0  0  0  0  0  0  0  0  0  0
  1 15  1  0  0  0  0
  2 18  1  0  0  0  0
  3  7  2  0  0  0  0
  4  9  2  0  0  0  0
  5  9  1  0  0  0  0
  5 12  1  0  0  0  0
  5 25  1  0  0  0  0
  6  7  1  0  0  0  0
  6  8  1  0  0  0  0
  6  9  1  0  0  0  0
  6 10  1  0  0  0  0
  7 11  1  0  0  0  0
  8 13  2  0  0  0  0
  8 14  1  0  0  0  0
 10 22  1  0  0  0  0
 10 23  1  0  0  0  0
 10 24  1  0  0  0  0
 11 12  2  0  0  0  0
 11 15  1  0  0  0  0
 12 16  1  0  0  0  0
 13 19  1  0  0  0  0
 13 26  1  0  0  0  0
 14 20  2  0  0  0  0
 14 27  1  0  0  0  0
 15 17  2  0  0  0  0
 16 18  2  0  0  0  0
 16 28  1  0  0  0  0
 17 18  1  0  0  0  0
 17 29  1  0  0  0  0
 19 21  2  0  0  0  0
 19 30  1  0  0  0  0
 20 21  1  0  0  0  0
 20 31  1  0  0  0  0
 21 32  1  0  0  0  0
M  END
> <PUBCHEM_COMPOUND_CID>
11638332

> <PUBCHEM_COMPOUND_CANONICALIZED>
1

> <PUBCHEM_CACTVS_COMPLEXITY>
450

> <PUBCHEM_CACTVS_HBOND_ACCEPTOR>
2

> <PUBCHEM_CACTVS_HBOND_DONOR>
1

> <PUBCHEM_CACTVS_ROTATABLE_BOND>
1

> <PUBCHEM_CACTVS_SUBSKEYS>
AAADccB6MAAGAAAAAAAAAAAAAAAAAAAAAAA8YIAAAAAAAACxQAAAHgIQAAAADg6BmCAywILAAACIAqVSUACCAAAlBwAIiAEAZsgIIDrJl5GEIYhglADIzUcYicCfhAAAAAKDAAAIAAAABQYAAAAAAAAAAA==

> <PUBCHEM_IUPAC_OPENEYE_NAME>
5,7-dichloro-3-methyl-3-phenyl-1H-quinoline-2,4-dione

> <PUBCHEM_IUPAC_CAS_NAME>
5,7-dichloro-3-methyl-3-phenyl-1H-quinoline-2,4-dione

> <PUBCHEM_IUPAC_NAME_MARKUP>
5,7-dichloro-3-methyl-3-phenyl-1<I>H</I>-quinoline-2,4-dione

> <PUBCHEM_IUPAC_NAME>
5,7-dichloro-3-methyl-3-phenyl-1H-quinoline-2,4-dione

> <PUBCHEM_IUPAC_SYSTEMATIC_NAME>
5,7-bis(chloranyl)-3-methyl-3-phenyl-1H-quinoline-2,4-dione

> <PUBCHEM_IUPAC_TRADITIONAL_NAME>
5,7-dichloro-3-methyl-3-phenyl-1H-quinoline-2,4-quinone

> <PUBCHEM_IUPAC_INCHI>
InChI=1S/C16H11Cl2NO2/c1-16(9-5-3-2-4-6-9)14(20)13-11(18)7-10(17)8-12(13)19-15(16)21/h2-8H,1H3,(H,19,21)

> <PUBCHEM_IUPAC_INCHIKEY>
XUTWKCUZLXNZPI-UHFFFAOYSA-N

> <PUBCHEM_XLOGP3_AA>
4.1

> <PUBCHEM_EXACT_MASS>
319.0166840

> <PUBCHEM_MOLECULAR_FORMULA>
C16H11Cl2NO2

> <PUBCHEM_MOLECULAR_WEIGHT>
320.2

> <PUBCHEM_OPENEYE_CAN_SMILES>
CC1(C(=O)C2=C(C=C(C=C2Cl)Cl)NC1=O)C3=CC=CC=C3

> <PUBCHEM_OPENEYE_ISO_SMILES>
CC1(C(=O)C2=C(C=C(C=C2Cl)Cl)NC1=O)C3=CC=CC=C3

> <PUBCHEM_CACTVS_TPSA>
46.2

> <PUBCHEM_MONOISOTOPIC_WEIGHT>
319.0166840

> <PUBCHEM_TOTAL_CHARGE>
0

> <PUBCHEM_HEAVY_ATOM_COUNT>
21

> <PUBCHEM_ATOM_DEF_STEREO_COUNT>
0

> <PUBCHEM_ATOM_UDEF_STEREO_COUNT>
1

> <PUBCHEM_BOND_DEF_STEREO_COUNT>
0

> <PUBCHEM_BOND_UDEF_STEREO_COUNT>
0

> <PUBCHEM_ISOTOPIC_ATOM_COUNT>
0

> <PUBCHEM_COMPONENT_COUNT>
1

> <PUBCHEM_CACTVS_TAUTO_COUNT>
-1

> <PUBCHEM_COORDINATE_TYPE>
1
5
255

> <PUBCHEM_BONDANNOTATIONS>
11  12  8
11  15  8
12  16  8
13  19  8
14  20  8
15  17  8
16  18  8
17  18  8
19  21  8
20  21  8
6  10  3
8  13  8
8  14  8

$$$$
