145973577
  -OEChem-09292322382D

 66 66  0     0  0  0  0  0  0999 V2000
    0.0000    7.3700    0.0000 Cl  0  0  0  0  0  0  0  0  0  0  0  0
    3.0000    7.3700    0.0000 Cl  0  0  0  0  0  0  0  0  0  0  0  0
   10.0010    5.6200    0.0000 O   0  0  0  0  0  0  0  0  0  0  0  0
    8.2690    3.6200    0.0000 O   0  0  0  0  0  0  0  0  0  0  0  0
   10.8671   10.1200    0.0000 N   0  0  0  0  0  0  0  0  0  0  0  0
   10.8671    8.1200    0.0000 N   0  0  0  0  0  0  0  0  0  0  0  0
   11.7331    9.6200    0.0000 C   0  0  0  0  0  0  0  0  0  0  0  0
   10.0010    9.6200    0.0000 C   0  0  0  0  0  0  0  0  0  0  0  0
   11.7331    8.6200    0.0000 C   0  0  0  0  0  0  0  0  0  0  0  0
   10.0010    8.6200    0.0000 C   0  0  0  0  0  0  0  0  0  0  0  0
   10.8671   11.1200    0.0000 C   0  0  0  0  0  0  0  0  0  0  0  0
   10.8671    7.1200    0.0000 C   0  0  0  0  0  0  0  0  0  0  0  0
   11.7331   11.6200    0.0000 C   0  0  0  0  0  0  0  0  0  0  0  0
   10.0010    6.6200    0.0000 C   0  0  0  0  0  0  0  0  0  0  0  0
   11.7331   12.6200    0.0000 C   0  0  0  0  0  0  0  0  0  0  0  0
   10.8671   13.1200    0.0000 C   0  0  0  0  0  0  0  0  0  0  0  0
   12.5991   13.1200    0.0000 C   0  0  0  0  0  0  0  0  0  0  0  0
    9.1350    5.1200    0.0000 C   0  0  0  0  0  0  0  0  0  0  0  0
    9.1350    4.1200    0.0000 C   0  0  0  0  0  0  0  0  0  0  0  0
   10.8671   14.1200    0.0000 C   0  0  0  0  0  0  0  0  0  0  0  0
   12.5991   14.1200    0.0000 C   0  0  0  0  0  0  0  0  0  0  0  0
   11.7331   14.6200    0.0000 C   0  0  0  0  0  0  0  0  0  0  0  0
    8.2690    2.6200    0.0000 C   0  0  0  0  0  0  0  0  0  0  0  0
    7.4030    2.1200    0.0000 C   0  0  0  0  0  0  0  0  0  0  0  0
    7.4030    1.1200    0.0000 C   0  0  0  0  0  0  0  0  0  0  0  0
    9.1350    2.1200    0.0000 C   0  0  0  0  0  0  0  0  0  0  0  0
    6.5369    2.6200    0.0000 C   0  0  0  0  0  0  0  0  0  0  0  0
    8.2690    0.6200    0.0000 C   0  0  0  0  0  0  0  0  0  0  0  0
    9.1350    1.1200    0.0000 C   0  0  0  0  0  0  0  0  0  0  0  0
    6.5369    0.6200    0.0000 C   0  0  0  0  0  0  0  0  0  0  0  0
   12.3437    9.5123    0.0000 H   0  0  0  0  0  0  0  0  0  0  0  0
   11.9451   10.2026    0.0000 H   0  0  0  0  0  0  0  0  0  0  0  0
    9.7890   10.2026    0.0000 H   0  0  0  0  0  0  0  0  0  0  0  0
    9.3905    9.5123    0.0000 H   0  0  0  0  0  0  0  0  0  0  0  0
   11.9451    8.0374    0.0000 H   0  0  0  0  0  0  0  0  0  0  0  0
   12.3437    8.7277    0.0000 H   0  0  0  0  0  0  0  0  0  0  0  0
    9.3905    8.7277    0.0000 H   0  0  0  0  0  0  0  0  0  0  0  0
    9.7890    8.0374    0.0000 H   0  0  0  0  0  0  0  0  0  0  0  0
   10.6550   11.7026    0.0000 H   0  0  0  0  0  0  0  0  0  0  0  0
   10.2565   11.0123    0.0000 H   0  0  0  0  0  0  0  0  0  0  0  0
   11.0791    6.5374    0.0000 H   0  0  0  0  0  0  0  0  0  0  0  0
   11.4776    7.2277    0.0000 H   0  0  0  0  0  0  0  0  0  0  0  0
   11.9451   11.0374    0.0000 H   0  0  0  0  0  0  0  0  0  0  0  0
   12.3437   11.7277    0.0000 H   0  0  0  0  0  0  0  0  0  0  0  0
    9.7890    7.2026    0.0000 H   0  0  0  0  0  0  0  0  0  0  0  0
    9.3905    6.5123    0.0000 H   0  0  0  0  0  0  0  0  0  0  0  0
   10.3301   12.8100    0.0000 H   0  0  0  0  0  0  0  0  0  0  0  0
   13.1360   12.8100    0.0000 H   0  0  0  0  0  0  0  0  0  0  0  0
    8.9230    5.7026    0.0000 H   0  0  0  0  0  0  0  0  0  0  0  0
    8.5244    5.0123    0.0000 H   0  0  0  0  0  0  0  0  0  0  0  0
    9.3471    3.5374    0.0000 H   0  0  0  0  0  0  0  0  0  0  0  0
    9.7456    4.2277    0.0000 H   0  0  0  0  0  0  0  0  0  0  0  0
   10.3301   14.4300    0.0000 H   0  0  0  0  0  0  0  0  0  0  0  0
   13.1360   14.4300    0.0000 H   0  0  0  0  0  0  0  0  0  0  0  0
   11.7331   15.2400    0.0000 H   0  0  0  0  0  0  0  0  0  0  0  0
    9.6720    2.4300    0.0000 H   0  0  0  0  0  0  0  0  0  0  0  0
    6.8469    3.1569    0.0000 H   0  0  0  0  0  0  0  0  0  0  0  0
    6.0000    2.9300    0.0000 H   0  0  0  0  0  0  0  0  0  0  0  0
    6.2269    2.0831    0.0000 H   0  0  0  0  0  0  0  0  0  0  0  0
    8.2690    0.0000    0.0000 H   0  0  0  0  0  0  0  0  0  0  0  0
    9.6720    0.8100    0.0000 H   0  0  0  0  0  0  0  0  0  0  0  0
    6.2269    1.1569    0.0000 H   0  0  0  0  0  0  0  0  0  0  0  0
    6.0000    0.3100    0.0000 H   0  0  0  0  0  0  0  0  0  0  0  0
    6.8469    0.0831    0.0000 H   0  0  0  0  0  0  0  0  0  0  0  0
    1.0000    7.3700    0.0000 H   0  0  0  0  0  0  0  0  0  0  0  0
    4.0000    7.3700    0.0000 H   0  0  0  0  0  0  0  0  0  0  0  0
  1 65  1  0  0  0  0
  2 66  1  0  0  0  0
  3 14  1  0  0  0  0
  3 18  1  0  0  0  0
  4 19  1  0  0  0  0
  4 23  1  0  0  0  0
  5  7  1  0  0  0  0
  5  8  1  0  0  0  0
  5 11  1  0  0  0  0
  6  9  1  0  0  0  0
  6 10  1  0  0  0  0
  6 12  1  0  0  0  0
  7  9  1  0  0  0  0
  7 31  1  0  0  0  0
  7 32  1  0  0  0  0
  8 10  1  0  0  0  0
  8 33  1  0  0  0  0
  8 34  1  0  0  0  0
  9 35  1  0  0  0  0
  9 36  1  0  0  0  0
 10 37  1  0  0  0  0
 10 38  1  0  0  0  0
 11 13  1  0  0  0  0
 11 39  1  0  0  0  0
 11 40  1  0  0  0  0
 12 14  1  0  0  0  0
 12 41  1  0  0  0  0
 12 42  1  0  0  0  0
 13 15  1  0  0  0  0
 13 43  1  0  0  0  0
 13 44  1  0  0  0  0
 14 45  1  0  0  0  0
 14 46  1  0  0  0  0
 15 16  2  0  0  0  0
 15 17  1  0  0  0  0
 16 20  1  0  0  0  0
 16 47  1  0  0  0  0
 17 21  2  0  0  0  0
 17 48  1  0  0  0  0
 18 19  1  0  0  0  0
 18 49  1  0  0  0  0
 18 50  1  0  0  0  0
 19 51  1  0  0  0  0
 19 52  1  0  0  0  0
 20 22  2  0  0  0  0
 20 53  1  0  0  0  0
 21 22  1  0  0  0  0
 21 54  1  0  0  0  0
 22 55  1  0  0  0  0
 23 24  1  0  0  0  0
 23 26  2  0  0  0  0
 24 25  2  0  0  0  0
 24 27  1  0  0  0  0
 25 28  1  0  0  0  0
 25 30  1  0  0  0  0
 26 29  1  0  0  0  0
 26 56  1  0  0  0  0
 27 57  1  0  0  0  0
 27 58  1  0  0  0  0
 27 59  1  0  0  0  0
 28 29  2  0  0  0  0
 28 60  1  0  0  0  0
 29 61  1  0  0  0  0
 30 62  1  0  0  0  0
 30 63  1  0  0  0  0
 30 64  1  0  0  0  0
M  END
> <PUBCHEM_COMPOUND_CID>
145973577

> <PUBCHEM_COMPOUND_CANONICALIZED>
1

> <PUBCHEM_CACTVS_COMPLEXITY>
405

> <PUBCHEM_CACTVS_HBOND_ACCEPTOR>
4

> <PUBCHEM_CACTVS_HBOND_DONOR>
2

> <PUBCHEM_CACTVS_ROTATABLE_BOND>
10

> <PUBCHEM_CACTVS_SUBSKEYS>
AAADcfB7MAAGAAAAAAAAAAAAAAAAAAAAAAA8YIAAAAAAAAABQAAAHgAAAAAADAThmAYyBoMABACAAiBCAAACCAAgIAAIiAAOCIgPZiKEsRuXOCCkwBGaqAeQwLAOgAABAAAYAAAAAAIAADAAAAAAAAAAAA==

> <PUBCHEM_IUPAC_OPENEYE_NAME>
1-[2-[2-(2,3-dimethylphenoxy)ethoxy]ethyl]-4-(2-phenylethyl)piperazine;dihydrochloride

> <PUBCHEM_IUPAC_CAS_NAME>
1-[2-[2-(2,3-dimethylphenoxy)ethoxy]ethyl]-4-(2-phenylethyl)piperazine;dihydrochloride

> <PUBCHEM_IUPAC_NAME_MARKUP>
1-[2-[2-(2,3-dimethylphenoxy)ethoxy]ethyl]-4-(2-phenylethyl)piperazine;dihydrochloride

> <PUBCHEM_IUPAC_NAME>
1-[2-[2-(2,3-dimethylphenoxy)ethoxy]ethyl]-4-(2-phenylethyl)piperazine;dihydrochloride

> <PUBCHEM_IUPAC_SYSTEMATIC_NAME>
1-[2-[2-(2,3-dimethylphenoxy)ethoxy]ethyl]-4-(2-phenylethyl)piperazine;dihydrochloride

> <PUBCHEM_IUPAC_TRADITIONAL_NAME>
1-[2-[2-(2,3-dimethylphenoxy)ethoxy]ethyl]-4-phenethyl-piperazine;dihydrochloride

> <PUBCHEM_IUPAC_INCHI>
InChI=1S/C24H34N2O2.2ClH/c1-21-7-6-10-24(22(21)2)28-20-19-27-18-17-26-15-13-25(14-16-26)12-11-23-8-4-3-5-9-23;;/h3-10H,11-20H2,1-2H3;2*1H

> <PUBCHEM_IUPAC_INCHIKEY>
IPWUJAOPCWHNKR-UHFFFAOYSA-N

> <PUBCHEM_EXACT_MASS>
454.2153838

> <PUBCHEM_MOLECULAR_FORMULA>
C24H36Cl2N2O2

> <PUBCHEM_MOLECULAR_WEIGHT>
455.5

> <PUBCHEM_OPENEYE_CAN_SMILES>
CC1=C(C(=CC=C1)OCCOCCN2CCN(CC2)CCC3=CC=CC=C3)C.Cl.Cl

> <PUBCHEM_OPENEYE_ISO_SMILES>
CC1=C(C(=CC=C1)OCCOCCN2CCN(CC2)CCC3=CC=CC=C3)C.Cl.Cl

> <PUBCHEM_CACTVS_TPSA>
24.9

> <PUBCHEM_MONOISOTOPIC_WEIGHT>
454.2153838

> <PUBCHEM_TOTAL_CHARGE>
0

> <PUBCHEM_HEAVY_ATOM_COUNT>
30

> <PUBCHEM_ATOM_DEF_STEREO_COUNT>
0

> <PUBCHEM_ATOM_UDEF_STEREO_COUNT>
0

> <PUBCHEM_BOND_DEF_STEREO_COUNT>
0

> <PUBCHEM_BOND_UDEF_STEREO_COUNT>
0

> <PUBCHEM_ISOTOPIC_ATOM_COUNT>
0

> <PUBCHEM_COMPONENT_COUNT>
3

> <PUBCHEM_CACTVS_TAUTO_COUNT>
-1

> <PUBCHEM_COORDINATE_TYPE>
1
5
255

> <PUBCHEM_BONDANNOTATIONS>
15  16  8
15  17  8
16  20  8
17  21  8
20  22  8
21  22  8
23  24  8
23  26  8
24  25  8
25  28  8
26  29  8
28  29  8

$$$$
