57587922
  -OEChem-09292322402D

 38 39  0     1  0  0  0  0  0999 V2000
    6.8671    1.1900    0.0000 O   0  0  0  0  0  0  0  0  0  0  0  0
    6.8671   -0.8100    0.0000 N   0  0  3  0  0  0  0  0  0  0  0  0
    4.2690    2.6900    0.0000 N   0  0  0  0  0  0  0  0  0  0  0  0
    2.5369    2.6900    0.0000 N   0  0  0  0  0  0  0  0  0  0  0  0
    7.7331   -0.3100    0.0000 C   0  0  2  0  0  0  0  0  0  0  0  0
    6.0010   -0.3100    0.0000 C   0  0  0  0  0  0  0  0  0  0  0  0
    6.0010    0.6900    0.0000 C   0  0  3  0  0  0  0  0  0  0  0  0
    7.7331    0.6900    0.0000 C   0  0  0  0  0  0  0  0  0  0  0  0
    6.8671   -1.8100    0.0000 C   0  0  0  0  0  0  0  0  0  0  0  0
    8.5991   -0.8100    0.0000 C   0  0  0  0  0  0  0  0  0  0  0  0
    5.1350    1.1900    0.0000 C   0  0  0  0  0  0  0  0  0  0  0  0
    6.0010   -2.3100    0.0000 C   0  0  0  0  0  0  0  0  0  0  0  0
    6.0010   -3.3100    0.0000 C   0  0  0  0  0  0  0  0  0  0  0  0
    4.2690    0.6900    0.0000 C   0  0  0  0  0  0  0  0  0  0  0  0
    5.1350    2.1900    0.0000 C   0  0  0  0  0  0  0  0  0  0  0  0
    3.4030    1.1900    0.0000 C   0  0  0  0  0  0  0  0  0  0  0  0
    3.4030    2.1900    0.0000 C   0  0  0  0  0  0  0  0  0  0  0  0
    7.7331   -0.9300    0.0000 H   0  0  0  0  0  0  0  0  0  0  0  0
    5.3905   -0.2023    0.0000 H   0  0  0  0  0  0  0  0  0  0  0  0
    5.7890   -0.8926    0.0000 H   0  0  0  0  0  0  0  0  0  0  0  0
    5.4641    0.3800    0.0000 H   0  0  0  0  0  0  0  0  0  0  0  0
    8.3437    0.5823    0.0000 H   0  0  0  0  0  0  0  0  0  0  0  0
    7.9451    1.2726    0.0000 H   0  0  0  0  0  0  0  0  0  0  0  0
    7.0791   -2.3926    0.0000 H   0  0  0  0  0  0  0  0  0  0  0  0
    7.4776   -1.7023    0.0000 H   0  0  0  0  0  0  0  0  0  0  0  0
    8.2891   -1.3469    0.0000 H   0  0  0  0  0  0  0  0  0  0  0  0
    9.1360   -1.1200    0.0000 H   0  0  0  0  0  0  0  0  0  0  0  0
    8.9091   -0.2731    0.0000 H   0  0  0  0  0  0  0  0  0  0  0  0
    5.7890   -1.7274    0.0000 H   0  0  0  0  0  0  0  0  0  0  0  0
    5.3905   -2.4177    0.0000 H   0  0  0  0  0  0  0  0  0  0  0  0
    5.3810   -3.3100    0.0000 H   0  0  0  0  0  0  0  0  0  0  0  0
    6.0010   -3.9300    0.0000 H   0  0  0  0  0  0  0  0  0  0  0  0
    6.6210   -3.3100    0.0000 H   0  0  0  0  0  0  0  0  0  0  0  0
    4.2690    0.0700    0.0000 H   0  0  0  0  0  0  0  0  0  0  0  0
    5.6720    2.5000    0.0000 H   0  0  0  0  0  0  0  0  0  0  0  0
    2.8660    0.8800    0.0000 H   0  0  0  0  0  0  0  0  0  0  0  0
    2.5369    3.3100    0.0000 H   0  0  0  0  0  0  0  0  0  0  0  0
    2.0000    2.3800    0.0000 H   0  0  0  0  0  0  0  0  0  0  0  0
  1  7  1  0  0  0  0
  1  8  1  0  0  0  0
  2  5  1  0  0  0  0
  2  6  1  0  0  0  0
  2  9  1  0  0  0  0
  3 15  1  0  0  0  0
  3 17  2  0  0  0  0
  4 17  1  0  0  0  0
  4 37  1  0  0  0  0
  4 38  1  0  0  0  0
  5  8  1  0  0  0  0
  5 10  1  6  0  0  0
  5 18  1  0  0  0  0
  6  7  1  0  0  0  0
  6 19  1  0  0  0  0
  6 20  1  0  0  0  0
  7 11  1  0  0  0  0
  7 21  1  0  0  0  0
  8 22  1  0  0  0  0
  8 23  1  0  0  0  0
  9 12  1  0  0  0  0
  9 24  1  0  0  0  0
  9 25  1  0  0  0  0
 10 26  1  0  0  0  0
 10 27  1  0  0  0  0
 10 28  1  0  0  0  0
 11 14  1  0  0  0  0
 11 15  2  0  0  0  0
 12 13  1  0  0  0  0
 12 29  1  0  0  0  0
 12 30  1  0  0  0  0
 13 31  1  0  0  0  0
 13 32  1  0  0  0  0
 13 33  1  0  0  0  0
 14 16  2  0  0  0  0
 14 34  1  0  0  0  0
 15 35  1  0  0  0  0
 16 17  1  0  0  0  0
 16 36  1  0  0  0  0
M  END
> <PUBCHEM_COMPOUND_CID>
57587922

> <PUBCHEM_COMPOUND_CANONICALIZED>
1

> <PUBCHEM_CACTVS_COMPLEXITY>
237

> <PUBCHEM_CACTVS_HBOND_ACCEPTOR>
4

> <PUBCHEM_CACTVS_HBOND_DONOR>
1

> <PUBCHEM_CACTVS_ROTATABLE_BOND>
3

> <PUBCHEM_CACTVS_SUBSKEYS>
AAADceBzIAAAAAAAAAAAAAAAAAAAAAAAAAAsWAAAAAAAAAABgAAAHgAQAAAADDzhmgY/sJNIFACgAjJnZACCgCkxAiAI2CA4bJiKJuLAsZmHMAhm0APY6CeQEAIOAAAAAAAAAAAAAAAAAAAAAAAAAAAAAA==

> <PUBCHEM_IUPAC_OPENEYE_NAME>
5-[(5S)-5-methyl-4-propyl-morpholin-2-yl]pyridin-2-amine

> <PUBCHEM_IUPAC_CAS_NAME>
5-[(5S)-5-methyl-4-propyl-2-morpholinyl]-2-pyridinamine

> <PUBCHEM_IUPAC_NAME_MARKUP>
5-[(5<I>S</I>)-5-methyl-4-propylmorpholin-2-yl]pyridin-2-amine

> <PUBCHEM_IUPAC_NAME>
5-[(5S)-5-methyl-4-propylmorpholin-2-yl]pyridin-2-amine

> <PUBCHEM_IUPAC_SYSTEMATIC_NAME>
5-[(5S)-5-methyl-4-propyl-morpholin-2-yl]pyridin-2-amine

> <PUBCHEM_IUPAC_TRADITIONAL_NAME>
[5-[(5S)-5-methyl-4-propyl-morpholin-2-yl]-2-pyridyl]amine

> <PUBCHEM_IUPAC_INCHI>
InChI=1S/C13H21N3O/c1-3-6-16-8-12(17-9-10(16)2)11-4-5-13(14)15-7-11/h4-5,7,10,12H,3,6,8-9H2,1-2H3,(H2,14,15)/t10-,12?/m0/s1

> <PUBCHEM_IUPAC_INCHIKEY>
DFTCYTDJDXZFSK-NUHJPDEHSA-N

> <PUBCHEM_XLOGP3_AA>
1.3

> <PUBCHEM_EXACT_MASS>
235.168462302

> <PUBCHEM_MOLECULAR_FORMULA>
C13H21N3O

> <PUBCHEM_MOLECULAR_WEIGHT>
235.33

> <PUBCHEM_OPENEYE_CAN_SMILES>
CCCN1CC(OCC1C)C2=CN=C(C=C2)N

> <PUBCHEM_OPENEYE_ISO_SMILES>
CCCN1CC(OC[C@@H]1C)C2=CN=C(C=C2)N

> <PUBCHEM_CACTVS_TPSA>
51.4

> <PUBCHEM_MONOISOTOPIC_WEIGHT>
235.168462302

> <PUBCHEM_TOTAL_CHARGE>
0

> <PUBCHEM_HEAVY_ATOM_COUNT>
17

> <PUBCHEM_ATOM_DEF_STEREO_COUNT>
1

> <PUBCHEM_ATOM_UDEF_STEREO_COUNT>
1

> <PUBCHEM_BOND_DEF_STEREO_COUNT>
0

> <PUBCHEM_BOND_UDEF_STEREO_COUNT>
0

> <PUBCHEM_ISOTOPIC_ATOM_COUNT>
0

> <PUBCHEM_COMPONENT_COUNT>
1

> <PUBCHEM_CACTVS_TAUTO_COUNT>
-1

> <PUBCHEM_COORDINATE_TYPE>
1
5
255

> <PUBCHEM_BONDANNOTATIONS>
11  14  8
11  15  8
14  16  8
16  17  8
3  15  8
3  17  8
5  10  6
7  11  3

$$$$
