11394708
  -OEChem-09292322022D

 50 52  0     0  0  0  0  0  0999 V2000
    8.0622   -4.7500    0.0000 Cl  0  0  0  0  0  0  0  0  0  0  0  0
    2.0000    2.7500    0.0000 O   0  5  0  0  0  0  0  0  0  0  0  0
    2.8660   -2.7500    0.0000 O   0  0  0  0  0  0  0  0  0  0  0  0
    3.7320   -0.2500    0.0000 N   0  0  0  0  0  0  0  0  0  0  0  0
    2.8660    3.2500    0.0000 N   0  3  0  0  0  0  0  0  0  0  0  0
    3.7320   -3.2500    0.0000 N   0  0  0  0  0  0  0  0  0  0  0  0
    3.7320    1.7500    0.0000 C   0  0  0  0  0  0  0  0  0  0  0  0
    2.8660    1.2500    0.0000 C   0  0  0  0  0  0  0  0  0  0  0  0
    4.5981    1.2500    0.0000 C   0  0  0  0  0  0  0  0  0  0  0  0
    2.8660    0.2500    0.0000 C   0  0  0  0  0  0  0  0  0  0  0  0
    4.5981    0.2500    0.0000 C   0  0  0  0  0  0  0  0  0  0  0  0
    3.7320   -1.2500    0.0000 C   0  0  0  0  0  0  0  0  0  0  0  0
    3.7320    2.7500    0.0000 C   0  0  0  0  0  0  0  0  0  0  0  0
    4.5981   -1.7500    0.0000 C   0  0  0  0  0  0  0  0  0  0  0  0
    4.5981    3.2500    0.0000 C   0  0  0  0  0  0  0  0  0  0  0  0
    4.5981   -2.7500    0.0000 C   0  0  0  0  0  0  0  0  0  0  0  0
    2.8660    4.2500    0.0000 C   0  0  0  0  0  0  0  0  0  0  0  0
    4.5981    4.2500    0.0000 C   0  0  0  0  0  0  0  0  0  0  0  0
    3.7320    4.7500    0.0000 C   0  0  0  0  0  0  0  0  0  0  0  0
    5.4641   -3.2500    0.0000 C   0  0  0  0  0  0  0  0  0  0  0  0
    5.4641   -4.2500    0.0000 C   0  0  0  0  0  0  0  0  0  0  0  0
    6.3301   -2.7500    0.0000 C   0  0  0  0  0  0  0  0  0  0  0  0
    6.3301   -4.7500    0.0000 C   0  0  0  0  0  0  0  0  0  0  0  0
    7.1962   -3.2500    0.0000 C   0  0  0  0  0  0  0  0  0  0  0  0
    7.1962   -4.2500    0.0000 C   0  0  0  0  0  0  0  0  0  0  0  0
    2.0000   -3.2500    0.0000 C   0  0  0  0  0  0  0  0  0  0  0  0
    4.2690    2.0600    0.0000 H   0  0  0  0  0  0  0  0  0  0  0  0
    2.6540    1.8326    0.0000 H   0  0  0  0  0  0  0  0  0  0  0  0
    2.2554    1.1423    0.0000 H   0  0  0  0  0  0  0  0  0  0  0  0
    5.2087    1.1423    0.0000 H   0  0  0  0  0  0  0  0  0  0  0  0
    4.8101    1.8326    0.0000 H   0  0  0  0  0  0  0  0  0  0  0  0
    2.2554    0.3577    0.0000 H   0  0  0  0  0  0  0  0  0  0  0  0
    2.6540   -0.3326    0.0000 H   0  0  0  0  0  0  0  0  0  0  0  0
    4.8101   -0.3326    0.0000 H   0  0  0  0  0  0  0  0  0  0  0  0
    5.2087    0.3577    0.0000 H   0  0  0  0  0  0  0  0  0  0  0  0
    3.1215   -1.1423    0.0000 H   0  0  0  0  0  0  0  0  0  0  0  0
    3.5200   -1.8326    0.0000 H   0  0  0  0  0  0  0  0  0  0  0  0
    5.2087   -1.8577    0.0000 H   0  0  0  0  0  0  0  0  0  0  0  0
    4.8101   -1.1674    0.0000 H   0  0  0  0  0  0  0  0  0  0  0  0
    5.1350    2.9400    0.0000 H   0  0  0  0  0  0  0  0  0  0  0  0
    2.3291    4.5600    0.0000 H   0  0  0  0  0  0  0  0  0  0  0  0
    5.1350    4.5600    0.0000 H   0  0  0  0  0  0  0  0  0  0  0  0
    3.7320    5.3700    0.0000 H   0  0  0  0  0  0  0  0  0  0  0  0
    4.9272   -4.5600    0.0000 H   0  0  0  0  0  0  0  0  0  0  0  0
    6.3301   -2.1300    0.0000 H   0  0  0  0  0  0  0  0  0  0  0  0
    6.3301   -5.3700    0.0000 H   0  0  0  0  0  0  0  0  0  0  0  0
    7.7331   -2.9400    0.0000 H   0  0  0  0  0  0  0  0  0  0  0  0
    1.6900   -2.7131    0.0000 H   0  0  0  0  0  0  0  0  0  0  0  0
    1.4631   -3.5600    0.0000 H   0  0  0  0  0  0  0  0  0  0  0  0
    2.3100   -3.7869    0.0000 H   0  0  0  0  0  0  0  0  0  0  0  0
  1 25  1  0  0  0  0
  2  5  1  0  0  0  0
  3  6  1  0  0  0  0
  3 26  1  0  0  0  0
  4 10  1  0  0  0  0
  4 11  1  0  0  0  0
  4 12  1  0  0  0  0
  5 13  1  0  0  0  0
  5 17  2  0  0  0  0
  6 16  2  0  0  0  0
  7  8  1  0  0  0  0
  7  9  1  0  0  0  0
  7 13  1  0  0  0  0
  7 27  1  0  0  0  0
  8 10  1  0  0  0  0
  8 28  1  0  0  0  0
  8 29  1  0  0  0  0
  9 11  1  0  0  0  0
  9 30  1  0  0  0  0
  9 31  1  0  0  0  0
 10 32  1  0  0  0  0
 10 33  1  0  0  0  0
 11 34  1  0  0  0  0
 11 35  1  0  0  0  0
 12 14  1  0  0  0  0
 12 36  1  0  0  0  0
 12 37  1  0  0  0  0
 13 15  2  0  0  0  0
 14 16  1  0  0  0  0
 14 38  1  0  0  0  0
 14 39  1  0  0  0  0
 15 18  1  0  0  0  0
 15 40  1  0  0  0  0
 16 20  1  0  0  0  0
 17 19  1  0  0  0  0
 17 41  1  0  0  0  0
 18 19  2  0  0  0  0
 18 42  1  0  0  0  0
 19 43  1  0  0  0  0
 20 21  2  0  0  0  0
 20 22  1  0  0  0  0
 21 23  1  0  0  0  0
 21 44  1  0  0  0  0
 22 24  2  0  0  0  0
 22 45  1  0  0  0  0
 23 25  2  0  0  0  0
 23 46  1  0  0  0  0
 24 25  1  0  0  0  0
 24 47  1  0  0  0  0
 26 48  1  0  0  0  0
 26 49  1  0  0  0  0
 26 50  1  0  0  0  0
M  CHG  2   2  -1   5   1
M  END
> <PUBCHEM_COMPOUND_CID>
11394708

> <PUBCHEM_COMPOUND_CANONICALIZED>
1

> <PUBCHEM_CACTVS_COMPLEXITY>
446

> <PUBCHEM_CACTVS_HBOND_ACCEPTOR>
4

> <PUBCHEM_CACTVS_HBOND_DONOR>
0

> <PUBCHEM_CACTVS_ROTATABLE_BOND>
6

> <PUBCHEM_CACTVS_SUBSKEYS>
AAADceB7MAAEAAAAAAAAAAAAAAAAAAAAAAA8WIAAAAAAAAABwAAAHgIEAAAADQrBHiY+gJMYEACgAzRnRACCgCAxByAo2CA4ZpoIIOLBk5GEIAhggADIyAcQgMAOBAAAAAAAAAAIAAAAAAAAAAAAAAAAAA==

> <PUBCHEM_IUPAC_OPENEYE_NAME>
(E)-1-(4-chlorophenyl)-N-methoxy-3-[4-(1-oxidopyridin-1-ium-2-yl)-1-piperidyl]propan-1-imine

> <PUBCHEM_IUPAC_CAS_NAME>
(E)-1-(4-chlorophenyl)-N-methoxy-3-[4-(1-oxido-2-pyridin-1-iumyl)-1-piperidinyl]-1-propanimine

> <PUBCHEM_IUPAC_NAME_MARKUP>
(<I>E</I>)-1-(4-chlorophenyl)-<I>N</I>-methoxy-3-[4-(1-oxidopyridin-1-ium-2-yl)piperidin-1-yl]propan-1-imine

> <PUBCHEM_IUPAC_NAME>
(E)-1-(4-chlorophenyl)-N-methoxy-3-[4-(1-oxidopyridin-1-ium-2-yl)piperidin-1-yl]propan-1-imine

> <PUBCHEM_IUPAC_SYSTEMATIC_NAME>
(E)-1-(4-chlorophenyl)-N-methoxy-3-[4-(1-oxidanidylpyridin-1-ium-2-yl)piperidin-1-yl]propan-1-imine

> <PUBCHEM_IUPAC_TRADITIONAL_NAME>
(E)-[1-(4-chlorophenyl)-3-[4-(1-oxidopyridin-1-ium-2-yl)piperidino]propylidene]-methoxy-amine

> <PUBCHEM_IUPAC_INCHI>
InChI=1S/C20H24ClN3O2/c1-26-22-19(16-5-7-18(21)8-6-16)11-15-23-13-9-17(10-14-23)20-4-2-3-12-24(20)25/h2-8,12,17H,9-11,13-15H2,1H3/b22-19+

> <PUBCHEM_IUPAC_INCHIKEY>
UXZSXFCPMYKUSL-ZBJSNUHESA-N

> <PUBCHEM_XLOGP3_AA>
3

> <PUBCHEM_EXACT_MASS>
373.1557047

> <PUBCHEM_MOLECULAR_FORMULA>
C20H24ClN3O2

> <PUBCHEM_MOLECULAR_WEIGHT>
373.9

> <PUBCHEM_OPENEYE_CAN_SMILES>
CON=C(CCN1CCC(CC1)C2=CC=CC=[N+]2[O-])C3=CC=C(C=C3)Cl

> <PUBCHEM_OPENEYE_ISO_SMILES>
CO/N=C(\CCN1CCC(CC1)C2=CC=CC=[N+]2[O-])/C3=CC=C(C=C3)Cl

> <PUBCHEM_CACTVS_TPSA>
50.3

> <PUBCHEM_MONOISOTOPIC_WEIGHT>
373.1557047

> <PUBCHEM_TOTAL_CHARGE>
0

> <PUBCHEM_HEAVY_ATOM_COUNT>
26

> <PUBCHEM_ATOM_DEF_STEREO_COUNT>
0

> <PUBCHEM_ATOM_UDEF_STEREO_COUNT>
0

> <PUBCHEM_BOND_DEF_STEREO_COUNT>
1

> <PUBCHEM_BOND_UDEF_STEREO_COUNT>
0

> <PUBCHEM_ISOTOPIC_ATOM_COUNT>
0

> <PUBCHEM_COMPONENT_COUNT>
1

> <PUBCHEM_CACTVS_TAUTO_COUNT>
-1

> <PUBCHEM_COORDINATE_TYPE>
1
5
255

> <PUBCHEM_BONDANNOTATIONS>
13  15  8
15  18  8
17  19  8
18  19  8
20  21  8
20  22  8
21  23  8
22  24  8
23  25  8
24  25  8
5  13  8
5  17  8

$$$$
