155530882
  -OEChem-09292322412D

189194  0     1  0  0  0  0  0999 V2000
    7.3402   -7.6923    0.0000 Cl  0  0  0  0  0  0  0  0  0  0  0  0
    2.0000  -11.1375    0.0000 Cl  0  0  0  0  0  0  0  0  0  0  0  0
    7.7023  -11.1375    0.0000 Cl  0  0  0  0  0  0  0  0  0  0  0  0
   37.7765    5.6029    0.0000 O   0  0  0  0  0  0  0  0  0  0  0  0
   28.2338    8.1374    0.0000 O   0  0  0  0  0  0  0  0  0  0  0  0
   10.0473    0.6375    0.0000 O   0  0  0  0  0  0  0  0  0  0  0  0
   10.9133    7.1374    0.0000 O   0  0  0  0  0  0  0  0  0  0  0  0
   25.6357    5.6374    0.0000 O   0  0  0  0  0  0  0  0  0  0  0  0
    9.1813    4.1374    0.0000 O   0  0  0  0  0  0  0  0  0  0  0  0
   10.9133    8.1374    0.0000 O   0  0  0  0  0  0  0  0  0  0  0  0
   22.1716    6.6374    0.0000 O   0  0  0  0  0  0  0  0  0  0  0  0
   19.5736    7.1374    0.0000 O   0  0  0  0  0  0  0  0  0  0  0  0
    3.9851   -4.8626    0.0000 O   0  0  0  0  0  0  0  0  0  0  0  0
   17.8415    8.1374    0.0000 O   0  0  0  0  0  0  0  0  0  0  0  0
   34.2960    8.6374    0.0000 N   0  0  3  0  0  0  0  0  0  0  0  0
   29.0999    6.6374    0.0000 N   0  0  0  0  0  0  0  0  0  0  0  0
   11.7793    5.6374    0.0000 N   0  0  0  0  0  0  0  0  0  0  0  0
    8.3152    2.6374    0.0000 N   0  0  0  0  0  0  0  0  0  0  0  0
    8.3152    0.6375    0.0000 N   0  0  0  0  0  0  0  0  0  0  0  0
   12.6454    8.1374    0.0000 N   0  0  0  0  0  0  0  0  0  0  0  0
   24.7697    7.1374    0.0000 N   0  0  0  0  0  0  0  0  0  0  0  0
   16.9755    6.6374    0.0000 N   0  0  0  0  0  0  0  0  0  0  0  0
    5.7172   -4.8626    0.0000 N   0  0  0  0  0  0  0  0  0  0  0  0
    5.3511   -7.9014    0.0000 N   0  0  0  0  0  0  0  0  0  0  0  0
    5.6602   -6.9503    0.0000 N   0  0  0  0  0  0  0  0  0  0  0  0
   35.1620    8.1374    0.0000 C   0  0  3  0  0  0  0  0  0  0  0  0
   35.1620    7.1374    0.0000 C   0  0  0  0  0  0  0  0  0  0  0  0
   36.0281    8.6374    0.0000 C   0  0  0  0  0  0  0  0  0  0  0  0
   36.0281    6.6374    0.0000 C   0  0  0  0  0  0  0  0  0  0  0  0
   36.8941    8.1374    0.0000 C   0  0  0  0  0  0  0  0  0  0  0  0
   36.8941    7.1374    0.0000 C   0  0  0  0  0  0  0  0  0  0  0  0
   33.4300    8.1374    0.0000 C   0  0  0  0  0  0  0  0  0  0  0  0
   34.2960    9.6374    0.0000 C   0  0  0  0  0  0  0  0  0  0  0  0
   32.5640    8.6374    0.0000 C   0  0  0  0  0  0  0  0  0  0  0  0
   37.7880    8.6721    0.0000 C   0  0  0  0  0  0  0  0  0  0  0  0
   37.7880    6.6028    0.0000 C   0  0  0  0  0  0  0  0  0  0  0  0
   33.4300   10.1375    0.0000 C   0  0  0  0  0  0  0  0  0  0  0  0
   38.6941    8.1583    0.0000 C   0  0  0  0  0  0  0  0  0  0  0  0
   38.6941    7.1166    0.0000 C   0  0  0  0  0  0  0  0  0  0  0  0
   31.6979    8.1374    0.0000 C   0  0  0  0  0  0  0  0  0  0  0  0
   33.4300   11.1375    0.0000 C   0  0  0  0  0  0  0  0  0  0  0  0
   31.6979    7.1374    0.0000 C   0  0  0  0  0  0  0  0  0  0  0  0
   30.8319    8.6374    0.0000 C   0  0  0  0  0  0  0  0  0  0  0  0
   30.8319    6.6374    0.0000 C   0  0  0  0  0  0  0  0  0  0  0  0
   29.9659    8.1374    0.0000 C   0  0  0  0  0  0  0  0  0  0  0  0
   29.9659    7.1374    0.0000 C   0  0  0  0  0  0  0  0  0  0  0  0
   28.2338    7.1374    0.0000 C   0  0  0  0  0  0  0  0  0  0  0  0
   27.3678    6.6374    0.0000 C   0  0  0  0  0  0  0  0  0  0  0  0
   26.5018    7.1374    0.0000 C   0  0  0  0  0  0  0  0  0  0  0  0
   10.0473    2.6374    0.0000 C   0  0  0  0  0  0  0  0  0  0  0  0
   10.0473    3.6374    0.0000 C   0  0  0  0  0  0  0  0  0  0  0  0
    9.1813    2.1374    0.0000 C   0  0  1  0  0  0  0  0  0  0  0  0
   10.9133    4.1374    0.0000 C   0  0  0  0  0  0  0  0  0  0  0  0
   12.6454    7.1374    0.0000 C   0  0  1  0  0  0  0  0  0  0  0  0
   13.5114    6.6374    0.0000 C   0  0  0  0  0  0  0  0  0  0  0  0
   10.9133    5.1374    0.0000 C   0  0  0  0  0  0  0  0  0  0  0  0
   14.3774    7.1374    0.0000 C   0  0  0  0  0  0  0  0  0  0  0  0
    7.4492   -0.8625    0.0000 C   0  0  0  0  0  0  0  0  0  0  0  0
    7.4492   -1.8626    0.0000 C   0  0  0  0  0  0  0  0  0  0  0  0
    9.1813    1.1374    0.0000 C   0  0  0  0  0  0  0  0  0  0  0  0
    8.3152   -0.3625    0.0000 C   0  0  0  0  0  0  0  0  0  0  0  0
   25.6357    6.6374    0.0000 C   0  0  0  0  0  0  0  0  0  0  0  0
    6.5832   -2.3626    0.0000 C   0  0  0  0  0  0  0  0  0  0  0  0
   11.7793    6.6374    0.0000 C   0  0  0  0  0  0  0  0  0  0  0  0
   15.2434    6.6374    0.0000 C   0  0  0  0  0  0  0  0  0  0  0  0
    6.5832   -3.3626    0.0000 C   0  0  0  0  0  0  0  0  0  0  0  0
   16.1095    7.1374    0.0000 C   0  0  0  0  0  0  0  0  0  0  0  0
    5.7172   -3.8626    0.0000 C   0  0  0  0  0  0  0  0  0  0  0  0
    8.3152    3.6374    0.0000 C   0  0  0  0  0  0  0  0  0  0  0  0
   11.7793    8.6374    0.0000 C   0  0  0  0  0  0  0  0  0  0  0  0
   23.9037    6.6374    0.0000 C   0  0  0  0  0  0  0  0  0  0  0  0
    7.4492    4.1374    0.0000 C   0  0  0  0  0  0  0  0  0  0  0  0
    4.8511   -5.3626    0.0000 C   0  0  0  0  0  0  0  0  0  0  0  0
   23.0377    7.1374    0.0000 C   0  0  0  0  0  0  0  0  0  0  0  0
   11.7793    9.6374    0.0000 C   0  0  0  0  0  0  0  0  0  0  0  0
   17.8415    7.1374    0.0000 C   0  0  0  0  0  0  0  0  0  0  0  0
    4.8511   -6.3626    0.0000 C   0  0  0  0  0  0  0  0  0  0  0  0
    4.0421   -6.9503    0.0000 C   0  0  0  0  0  0  0  0  0  0  0  0
    4.3511   -7.9014    0.0000 C   0  0  0  0  0  0  0  0  0  0  0  0
   18.7075    6.6374    0.0000 C   0  0  0  0  0  0  0  0  0  0  0  0
    3.7634   -8.7104    0.0000 C   0  0  0  0  0  0  0  0  0  0  0  0
    3.0911   -6.6413    0.0000 C   0  0  0  0  0  0  0  0  0  0  0  0
   21.3056    7.1374    0.0000 C   0  0  0  0  0  0  0  0  0  0  0  0
    5.9389   -8.7104    0.0000 C   0  0  0  0  0  0  0  0  0  0  0  0
   20.4396    6.6374    0.0000 C   0  0  0  0  0  0  0  0  0  0  0  0
    2.7688   -8.6059    0.0000 C   0  0  0  0  0  0  0  0  0  0  0  0
    4.1701   -9.6240    0.0000 C   0  0  0  0  0  0  0  0  0  0  0  0
    6.9334   -8.6059    0.0000 C   0  0  0  0  0  0  0  0  0  0  0  0
    5.5322   -9.6240    0.0000 C   0  0  0  0  0  0  0  0  0  0  0  0
    2.1810   -9.4149    0.0000 C   0  0  0  0  0  0  0  0  0  0  0  0
    3.5823  -10.4330    0.0000 C   0  0  0  0  0  0  0  0  0  0  0  0
    7.5212   -9.4149    0.0000 C   0  0  0  0  0  0  0  0  0  0  0  0
    6.1200  -10.4330    0.0000 C   0  0  0  0  0  0  0  0  0  0  0  0
    2.5878  -10.3284    0.0000 C   0  0  0  0  0  0  0  0  0  0  0  0
    7.1145  -10.3284    0.0000 C   0  0  0  0  0  0  0  0  0  0  0  0
   34.6251    7.8275    0.0000 H   0  0  0  0  0  0  0  0  0  0  0  0
   34.5514    7.2451    0.0000 H   0  0  0  0  0  0  0  0  0  0  0  0
   34.9500    6.5548    0.0000 H   0  0  0  0  0  0  0  0  0  0  0  0
   36.4266    9.1124    0.0000 H   0  0  0  0  0  0  0  0  0  0  0  0
   35.6295    9.1124    0.0000 H   0  0  0  0  0  0  0  0  0  0  0  0
   35.6295    6.1625    0.0000 H   0  0  0  0  0  0  0  0  0  0  0  0
   36.4266    6.1625    0.0000 H   0  0  0  0  0  0  0  0  0  0  0  0
   33.0315    7.6625    0.0000 H   0  0  0  0  0  0  0  0  0  0  0  0
   33.8285    7.6625    0.0000 H   0  0  0  0  0  0  0  0  0  0  0  0
   34.9066    9.5298    0.0000 H   0  0  0  0  0  0  0  0  0  0  0  0
   34.5081   10.2201    0.0000 H   0  0  0  0  0  0  0  0  0  0  0  0
   32.9625    9.1124    0.0000 H   0  0  0  0  0  0  0  0  0  0  0  0
   32.1654    9.1124    0.0000 H   0  0  0  0  0  0  0  0  0  0  0  0
   37.7809    9.2921    0.0000 H   0  0  0  0  0  0  0  0  0  0  0  0
   32.8194   10.2451    0.0000 H   0  0  0  0  0  0  0  0  0  0  0  0
   33.2179    9.5548    0.0000 H   0  0  0  0  0  0  0  0  0  0  0  0
   39.2298    8.4703    0.0000 H   0  0  0  0  0  0  0  0  0  0  0  0
   39.2298    6.8046    0.0000 H   0  0  0  0  0  0  0  0  0  0  0  0
   34.0500   11.1375    0.0000 H   0  0  0  0  0  0  0  0  0  0  0  0
   33.4300   11.7575    0.0000 H   0  0  0  0  0  0  0  0  0  0  0  0
   32.8100   11.1375    0.0000 H   0  0  0  0  0  0  0  0  0  0  0  0
   38.3098    5.2867    0.0000 H   0  0  0  0  0  0  0  0  0  0  0  0
   32.2349    6.8275    0.0000 H   0  0  0  0  0  0  0  0  0  0  0  0
   30.8319    9.2574    0.0000 H   0  0  0  0  0  0  0  0  0  0  0  0
   30.8319    6.0175    0.0000 H   0  0  0  0  0  0  0  0  0  0  0  0
   29.4289    8.4475    0.0000 H   0  0  0  0  0  0  0  0  0  0  0  0
   29.0999    6.0175    0.0000 H   0  0  0  0  0  0  0  0  0  0  0  0
   26.9693    6.1625    0.0000 H   0  0  0  0  0  0  0  0  0  0  0  0
   27.7663    6.1625    0.0000 H   0  0  0  0  0  0  0  0  0  0  0  0
   26.9003    7.6124    0.0000 H   0  0  0  0  0  0  0  0  0  0  0  0
   26.1032    7.6124    0.0000 H   0  0  0  0  0  0  0  0  0  0  0  0
   10.2593    2.0548    0.0000 H   0  0  0  0  0  0  0  0  0  0  0  0
   10.6579    2.7451    0.0000 H   0  0  0  0  0  0  0  0  0  0  0  0
    9.8352    4.2201    0.0000 H   0  0  0  0  0  0  0  0  0  0  0  0
    9.4367    3.5298    0.0000 H   0  0  0  0  0  0  0  0  0  0  0  0
    8.6443    1.8275    0.0000 H   0  0  0  0  0  0  0  0  0  0  0  0
   11.1254    3.5548    0.0000 H   0  0  0  0  0  0  0  0  0  0  0  0
   11.5239    4.2451    0.0000 H   0  0  0  0  0  0  0  0  0  0  0  0
   12.1084    7.4474    0.0000 H   0  0  0  0  0  0  0  0  0  0  0  0
   13.1129    6.1625    0.0000 H   0  0  0  0  0  0  0  0  0  0  0  0
   13.9099    6.1625    0.0000 H   0  0  0  0  0  0  0  0  0  0  0  0
   10.7013    5.7201    0.0000 H   0  0  0  0  0  0  0  0  0  0  0  0
   10.3027    5.0298    0.0000 H   0  0  0  0  0  0  0  0  0  0  0  0
   14.7759    7.6124    0.0000 H   0  0  0  0  0  0  0  0  0  0  0  0
   13.9789    7.6124    0.0000 H   0  0  0  0  0  0  0  0  0  0  0  0
    7.2372   -0.2799    0.0000 H   0  0  0  0  0  0  0  0  0  0  0  0
    6.8386   -0.9702    0.0000 H   0  0  0  0  0  0  0  0  0  0  0  0
    7.6613   -2.4452    0.0000 H   0  0  0  0  0  0  0  0  0  0  0  0
    8.0598   -1.7549    0.0000 H   0  0  0  0  0  0  0  0  0  0  0  0
    8.5273   -0.9452    0.0000 H   0  0  0  0  0  0  0  0  0  0  0  0
    8.9258   -0.2549    0.0000 H   0  0  0  0  0  0  0  0  0  0  0  0
    6.3711   -1.7799    0.0000 H   0  0  0  0  0  0  0  0  0  0  0  0
    5.9726   -2.4702    0.0000 H   0  0  0  0  0  0  0  0  0  0  0  0
   12.3163    5.3275    0.0000 H   0  0  0  0  0  0  0  0  0  0  0  0
   14.8449    6.1625    0.0000 H   0  0  0  0  0  0  0  0  0  0  0  0
   15.6420    6.1625    0.0000 H   0  0  0  0  0  0  0  0  0  0  0  0
    7.7783    2.3274    0.0000 H   0  0  0  0  0  0  0  0  0  0  0  0
    7.7783    0.9475    0.0000 H   0  0  0  0  0  0  0  0  0  0  0  0
    6.7952   -3.9452    0.0000 H   0  0  0  0  0  0  0  0  0  0  0  0
    7.1938   -3.2549    0.0000 H   0  0  0  0  0  0  0  0  0  0  0  0
   13.1823    8.4474    0.0000 H   0  0  0  0  0  0  0  0  0  0  0  0
   16.5080    7.6124    0.0000 H   0  0  0  0  0  0  0  0  0  0  0  0
   15.7109    7.6124    0.0000 H   0  0  0  0  0  0  0  0  0  0  0  0
    5.5051   -3.2799    0.0000 H   0  0  0  0  0  0  0  0  0  0  0  0
    5.1066   -3.9702    0.0000 H   0  0  0  0  0  0  0  0  0  0  0  0
   24.7697    7.7574    0.0000 H   0  0  0  0  0  0  0  0  0  0  0  0
   16.9755    6.0175    0.0000 H   0  0  0  0  0  0  0  0  0  0  0  0
   23.5052    6.1625    0.0000 H   0  0  0  0  0  0  0  0  0  0  0  0
   24.3022    6.1625    0.0000 H   0  0  0  0  0  0  0  0  0  0  0  0
    6.2541   -5.1725    0.0000 H   0  0  0  0  0  0  0  0  0  0  0  0
    7.7592    4.6744    0.0000 H   0  0  0  0  0  0  0  0  0  0  0  0
    6.9123    4.4474    0.0000 H   0  0  0  0  0  0  0  0  0  0  0  0
    7.1392    3.6005    0.0000 H   0  0  0  0  0  0  0  0  0  0  0  0
   12.3993    9.6374    0.0000 H   0  0  0  0  0  0  0  0  0  0  0  0
   11.7793   10.2575    0.0000 H   0  0  0  0  0  0  0  0  0  0  0  0
   11.1593    9.6374    0.0000 H   0  0  0  0  0  0  0  0  0  0  0  0
   23.4362    7.6124    0.0000 H   0  0  0  0  0  0  0  0  0  0  0  0
   22.6391    7.6124    0.0000 H   0  0  0  0  0  0  0  0  0  0  0  0
   18.3090    6.1625    0.0000 H   0  0  0  0  0  0  0  0  0  0  0  0
   19.1061    6.1625    0.0000 H   0  0  0  0  0  0  0  0  0  0  0  0
    3.2827   -6.0517    0.0000 H   0  0  0  0  0  0  0  0  0  0  0  0
    2.5014   -6.4497    0.0000 H   0  0  0  0  0  0  0  0  0  0  0  0
    2.8995   -7.2310    0.0000 H   0  0  0  0  0  0  0  0  0  0  0  0
   21.7042    7.6124    0.0000 H   0  0  0  0  0  0  0  0  0  0  0  0
   20.9071    7.6124    0.0000 H   0  0  0  0  0  0  0  0  0  0  0  0
   20.0411    6.1625    0.0000 H   0  0  0  0  0  0  0  0  0  0  0  0
   20.8381    6.1625    0.0000 H   0  0  0  0  0  0  0  0  0  0  0  0
    2.5167   -8.0395    0.0000 H   0  0  0  0  0  0  0  0  0  0  0  0
    4.7867   -9.6888    0.0000 H   0  0  0  0  0  0  0  0  0  0  0  0
    4.9156   -9.6888    0.0000 H   0  0  0  0  0  0  0  0  0  0  0  0
    1.5644   -9.3501    0.0000 H   0  0  0  0  0  0  0  0  0  0  0  0
    3.8345  -10.9994    0.0000 H   0  0  0  0  0  0  0  0  0  0  0  0
    8.1378   -9.3501    0.0000 H   0  0  0  0  0  0  0  0  0  0  0  0
    5.8678  -10.9994    0.0000 H   0  0  0  0  0  0  0  0  0  0  0  0
  1 88  1  0  0  0  0
  2 94  1  0  0  0  0
  3 95  1  0  0  0  0
  4 36  1  0  0  0  0
  4117  1  0  0  0  0
  5 47  2  0  0  0  0
  6 60  2  0  0  0  0
  7 64  2  0  0  0  0
  8 62  2  0  0  0  0
  9 69  2  0  0  0  0
 10 70  2  0  0  0  0
 11 74  1  0  0  0  0
 11 83  1  0  0  0  0
 12 80  1  0  0  0  0
 12 85  1  0  0  0  0
 13 73  2  0  0  0  0
 14 76  2  0  0  0  0
 15 26  1  0  0  0  0
 15 32  1  0  0  0  0
 15 33  1  0  0  0  0
 16 46  1  0  0  0  0
 16 47  1  0  0  0  0
 16122  1  0  0  0  0
 17 56  1  0  0  0  0
 17 64  1  0  0  0  0
 17149  1  0  0  0  0
 52 18  1  1  0  0  0
 18 69  1  0  0  0  0
 18152  1  0  0  0  0
 19 60  1  0  0  0  0
 19 61  1  0  0  0  0
 19153  1  0  0  0  0
 54 20  1  1  0  0  0
 20 70  1  0  0  0  0
 20156  1  0  0  0  0
 21 62  1  0  0  0  0
 21 71  1  0  0  0  0
 21161  1  0  0  0  0
 22 67  1  0  0  0  0
 22 76  1  0  0  0  0
 22162  1  0  0  0  0
 23 68  1  0  0  0  0
 23 73  1  0  0  0  0
 23165  1  0  0  0  0
 24 25  1  0  0  0  0
 24 79  1  0  0  0  0
 24 84  1  0  0  0  0
 25 77  2  0  0  0  0
 26 27  1  0  0  0  0
 26 28  1  0  0  0  0
 26 96  1  0  0  0  0
 27 29  1  0  0  0  0
 27 97  1  0  0  0  0
 27 98  1  0  0  0  0
 28 30  1  0  0  0  0
 28 99  1  0  0  0  0
 28100  1  0  0  0  0
 29 31  1  0  0  0  0
 29101  1  0  0  0  0
 29102  1  0  0  0  0
 30 31  2  0  0  0  0
 30 35  1  0  0  0  0
 31 36  1  0  0  0  0
 32 34  1  0  0  0  0
 32103  1  0  0  0  0
 32104  1  0  0  0  0
 33 37  1  0  0  0  0
 33105  1  0  0  0  0
 33106  1  0  0  0  0
 34 40  1  0  0  0  0
 34107  1  0  0  0  0
 34108  1  0  0  0  0
 35 38  2  0  0  0  0
 35109  1  0  0  0  0
 36 39  2  0  0  0  0
 37 41  1  0  0  0  0
 37110  1  0  0  0  0
 37111  1  0  0  0  0
 38 39  1  0  0  0  0
 38112  1  0  0  0  0
 39113  1  0  0  0  0
 40 42  2  0  0  0  0
 40 43  1  0  0  0  0
 41114  1  0  0  0  0
 41115  1  0  0  0  0
 41116  1  0  0  0  0
 42 44  1  0  0  0  0
 42118  1  0  0  0  0
 43 45  2  0  0  0  0
 43119  1  0  0  0  0
 44 46  2  0  0  0  0
 44120  1  0  0  0  0
 45 46  1  0  0  0  0
 45121  1  0  0  0  0
 47 48  1  0  0  0  0
 48 49  1  0  0  0  0
 48123  1  0  0  0  0
 48124  1  0  0  0  0
 49 62  1  0  0  0  0
 49125  1  0  0  0  0
 49126  1  0  0  0  0
 50 51  1  0  0  0  0
 50 52  1  0  0  0  0
 50127  1  0  0  0  0
 50128  1  0  0  0  0
 51 53  1  0  0  0  0
 51129  1  0  0  0  0
 51130  1  0  0  0  0
 52 60  1  0  0  0  0
 52131  1  0  0  0  0
 53 56  1  0  0  0  0
 53132  1  0  0  0  0
 53133  1  0  0  0  0
 54 55  1  0  0  0  0
 54 64  1  0  0  0  0
 54134  1  0  0  0  0
 55 57  1  0  0  0  0
 55135  1  0  0  0  0
 55136  1  0  0  0  0
 56137  1  0  0  0  0
 56138  1  0  0  0  0
 57 65  1  0  0  0  0
 57139  1  0  0  0  0
 57140  1  0  0  0  0
 58 59  1  0  0  0  0
 58 61  1  0  0  0  0
 58141  1  0  0  0  0
 58142  1  0  0  0  0
 59 63  1  0  0  0  0
 59143  1  0  0  0  0
 59144  1  0  0  0  0
 61145  1  0  0  0  0
 61146  1  0  0  0  0
 63 66  1  0  0  0  0
 63147  1  0  0  0  0
 63148  1  0  0  0  0
 65 67  1  0  0  0  0
 65150  1  0  0  0  0
 65151  1  0  0  0  0
 66 68  1  0  0  0  0
 66154  1  0  0  0  0
 66155  1  0  0  0  0
 67157  1  0  0  0  0
 67158  1  0  0  0  0
 68159  1  0  0  0  0
 68160  1  0  0  0  0
 69 72  1  0  0  0  0
 70 75  1  0  0  0  0
 71 74  1  0  0  0  0
 71163  1  0  0  0  0
 71164  1  0  0  0  0
 72166  1  0  0  0  0
 72167  1  0  0  0  0
 72168  1  0  0  0  0
 73 77  1  0  0  0  0
 74172  1  0  0  0  0
 74173  1  0  0  0  0
 75169  1  0  0  0  0
 75170  1  0  0  0  0
 75171  1  0  0  0  0
 76 80  1  0  0  0  0
 77 78  1  0  0  0  0
 78 79  2  0  0  0  0
 78 82  1  0  0  0  0
 79 81  1  0  0  0  0
 80174  1  0  0  0  0
 80175  1  0  0  0  0
 81 86  2  0  0  0  0
 81 87  1  0  0  0  0
 82176  1  0  0  0  0
 82177  1  0  0  0  0
 82178  1  0  0  0  0
 83 85  1  0  0  0  0
 83179  1  0  0  0  0
 83180  1  0  0  0  0
 84 88  2  0  0  0  0
 84 89  1  0  0  0  0
 85181  1  0  0  0  0
 85182  1  0  0  0  0
 86 90  1  0  0  0  0
 86183  1  0  0  0  0
 87 91  2  0  0  0  0
 87184  1  0  0  0  0
 88 92  1  0  0  0  0
 89 93  2  0  0  0  0
 89185  1  0  0  0  0
 90 94  2  0  0  0  0
 90186  1  0  0  0  0
 91 94  1  0  0  0  0
 91187  1  0  0  0  0
 92 95  2  0  0  0  0
 92188  1  0  0  0  0
 93 95  1  0  0  0  0
 93189  1  0  0  0  0
M  END
> <PUBCHEM_COMPOUND_CID>
155530882

> <PUBCHEM_COMPOUND_CANONICALIZED>
1

> <PUBCHEM_CACTVS_COMPLEXITY>
2320

> <PUBCHEM_CACTVS_HBOND_ACCEPTOR>
13

> <PUBCHEM_CACTVS_HBOND_DONOR>
9

> <PUBCHEM_CACTVS_ROTATABLE_BOND>
42

> <PUBCHEM_CACTVS_SUBSKEYS>
AAADcfB//AAGAAAAAAAAAAAAAAAAAWAAAAAwYMGDAAAAAADB1AAAHgIYCAAADC7hniYyxpPIBgCqAyVyVAKSBCAnJwAYmKHubtgLZvLD1/fX9Qhk3hHa2Qed2POOjABBAACYABAYAIKAATAAIAAAAAAAAA==

> <PUBCHEM_IUPAC_OPENEYE_NAME>
N-[2-[2-[2-[[(5S)-5-acetamido-6-[[(5S)-5-acetamido-6-[6-[[5-(4-chlorophenyl)-1-(2,4-dichlorophenyl)-4-methyl-pyrazole-3-carbonyl]amino]hexylamino]-6-oxo-hexyl]amino]-6-oxo-hexyl]amino]-2-oxo-ethoxy]ethoxy]ethyl]-N'-[4-[2-[(5-hydroxytetralin-2-yl)-propyl-amino]ethyl]phenyl]butanediamide

> <PUBCHEM_IUPAC_CAS_NAME>
N-[2-[2-[2-[[(5S)-5-acetamido-6-[[(5S)-5-acetamido-6-[6-[[[5-(4-chlorophenyl)-1-(2,4-dichlorophenyl)-4-methyl-3-pyrazolyl]-oxomethyl]amino]hexylamino]-6-oxohexyl]amino]-6-oxohexyl]amino]-2-oxoethoxy]ethoxy]ethyl]-N'-[4-[2-[(5-hydroxy-1,2,3,4-tetrahydronaphthalen-2-yl)-propylamino]ethyl]phenyl]butanediamide

> <PUBCHEM_IUPAC_NAME_MARKUP>
<I>N</I>-[2-[2-[2-[[(5<I>S</I>)-5-acetamido-6-[[(5<I>S</I>)-5-acetamido-6-[6-[[5-(4-chlorophenyl)-1-(2,4-dichlorophenyl)-4-methylpyrazole-3-carbonyl]amino]hexylamino]-6-oxohexyl]amino]-6-oxohexyl]amino]-2-oxoethoxy]ethoxy]ethyl]-<I>N</I>&apos;-[4-[2-[(5-hydroxy-1,2,3,4-tetrahydronaphthalen-2-yl)-propylamino]ethyl]phenyl]butanediamide

> <PUBCHEM_IUPAC_NAME>
N-[2-[2-[2-[[(5S)-5-acetamido-6-[[(5S)-5-acetamido-6-[6-[[5-(4-chlorophenyl)-1-(2,4-dichlorophenyl)-4-methylpyrazole-3-carbonyl]amino]hexylamino]-6-oxohexyl]amino]-6-oxohexyl]amino]-2-oxoethoxy]ethoxy]ethyl]-N'-[4-[2-[(5-hydroxy-1,2,3,4-tetrahydronaphthalen-2-yl)-propylamino]ethyl]phenyl]butanediamide

> <PUBCHEM_IUPAC_SYSTEMATIC_NAME>
N-[2-[2-[2-[[(5S)-5-acetamido-6-[[(5S)-5-acetamido-6-[6-[[5-(4-chlorophenyl)-1-(2,4-dichlorophenyl)-4-methyl-pyrazol-3-yl]carbonylamino]hexylamino]-6-oxidanylidene-hexyl]amino]-6-oxidanylidene-hexyl]amino]-2-oxidanylidene-ethoxy]ethoxy]ethyl]-N'-[4-[2-[(5-oxidanyl-1,2,3,4-tetrahydronaphthalen-2-yl)-propyl-amino]ethyl]phenyl]butanediamide

> <PUBCHEM_IUPAC_TRADITIONAL_NAME>
N-[2-[2-[2-[[(5S)-5-acetamido-6-[[(5S)-5-acetamido-6-[6-[[5-(4-chlorophenyl)-1-(2,4-dichlorophenyl)-4-methyl-pyrazole-3-carbonyl]amino]hexylamino]-6-keto-hexyl]amino]-6-keto-hexyl]amino]-2-keto-ethoxy]ethoxy]ethyl]-N'-[4-[2-[(5-hydroxytetralin-2-yl)-propyl-amino]ethyl]phenyl]succinamide

> <PUBCHEM_IUPAC_INCHI>
InChI=1S/C70H94Cl3N11O11/c1-5-39-83(56-28-29-57-52(44-56)15-14-18-62(57)87)40-33-50-19-26-55(27-20-50)81-64(89)32-31-63(88)75-38-41-94-42-43-95-46-65(90)74-34-12-8-16-59(79-48(3)85)69(92)77-37-13-9-17-60(80-49(4)86)68(91)76-35-10-6-7-11-36-78-70(93)66-47(2)67(51-21-23-53(71)24-22-51)84(82-66)61-30-25-54(72)45-58(61)73/h14-15,18-27,30,45,56,59-60,87H,5-13,16-17,28-29,31-44,46H2,1-4H3,(H,74,90)(H,75,88)(H,76,91)(H,77,92)(H,78,93)(H,79,85)(H,80,86)(H,81,89)/t56?,59-,60-/m0/s1

> <PUBCHEM_IUPAC_INCHIKEY>
UKWWEYXNSCXUAW-RZXSSXJESA-N

> <PUBCHEM_XLOGP3_AA>
8.7

> <PUBCHEM_EXACT_MASS>
1369.619986

> <PUBCHEM_MOLECULAR_FORMULA>
C70H94Cl3N11O11

> <PUBCHEM_MOLECULAR_WEIGHT>
1371.9

> <PUBCHEM_OPENEYE_CAN_SMILES>
CCCN(CCC1=CC=C(C=C1)NC(=O)CCC(=O)NCCOCCOCC(=O)NCCCCC(C(=O)NCCCCC(C(=O)NCCCCCCNC(=O)C2=NN(C(=C2C)C3=CC=C(C=C3)Cl)C4=C(C=C(C=C4)Cl)Cl)NC(=O)C)NC(=O)C)C5CCC6=C(C5)C=CC=C6O

> <PUBCHEM_OPENEYE_ISO_SMILES>
CCCN(CCC1=CC=C(C=C1)NC(=O)CCC(=O)NCCOCCOCC(=O)NCCCC[C@@H](C(=O)NCCCC[C@@H](C(=O)NCCCCCCNC(=O)C2=NN(C(=C2C)C3=CC=C(C=C3)Cl)C4=C(C=C(C=C4)Cl)Cl)NC(=O)C)NC(=O)C)C5CCC6=C(C5)C=CC=C6O

> <PUBCHEM_CACTVS_TPSA>
293

> <PUBCHEM_MONOISOTOPIC_WEIGHT>
1369.619986

> <PUBCHEM_TOTAL_CHARGE>
0

> <PUBCHEM_HEAVY_ATOM_COUNT>
95

> <PUBCHEM_ATOM_DEF_STEREO_COUNT>
2

> <PUBCHEM_ATOM_UDEF_STEREO_COUNT>
1

> <PUBCHEM_BOND_DEF_STEREO_COUNT>
0

> <PUBCHEM_BOND_UDEF_STEREO_COUNT>
0

> <PUBCHEM_ISOTOPIC_ATOM_COUNT>
0

> <PUBCHEM_COMPONENT_COUNT>
1

> <PUBCHEM_CACTVS_TAUTO_COUNT>
-1

> <PUBCHEM_COORDINATE_TYPE>
1
5
255

> <PUBCHEM_BONDANNOTATIONS>
26  15  3
52  18  5
54  20  5
24  25  8
24  79  8
25  77  8
30  31  8
30  35  8
31  36  8
35  38  8
36  39  8
38  39  8
40  42  8
40  43  8
42  44  8
43  45  8
44  46  8
45  46  8
77  78  8
78  79  8
81  86  8
81  87  8
84  88  8
84  89  8
86  90  8
87  91  8
88  92  8
89  93  8
90  94  8
91  94  8
92  95  8
93  95  8

$$$$
