23424166
  -OEChem-09292322092D

 49 51  0     0  0  0  0  0  0999 V2000
    4.0981    3.5670    0.0000 O   0  0  0  0  0  0  0  0  0  0  0  0
    2.0000   -1.7990    0.0000 O   0  0  0  0  0  0  0  0  0  0  0  0
    4.5981    0.7010    0.0000 N   0  0  0  0  0  0  0  0  0  0  0  0
    4.5981    2.7010    0.0000 C   0  0  0  0  0  0  0  0  0  0  0  0
    3.7320    2.2010    0.0000 C   0  0  0  0  0  0  0  0  0  0  0  0
    5.4641    2.2010    0.0000 C   0  0  0  0  0  0  0  0  0  0  0  0
    3.7320    1.2010    0.0000 C   0  0  0  0  0  0  0  0  0  0  0  0
    5.4641    1.2010    0.0000 C   0  0  0  0  0  0  0  0  0  0  0  0
    4.5981   -0.2990    0.0000 C   0  0  0  0  0  0  0  0  0  0  0  0
    5.0981    3.5670    0.0000 C   0  0  0  0  0  0  0  0  0  0  0  0
    3.7320   -0.7990    0.0000 C   0  0  0  0  0  0  0  0  0  0  0  0
    4.5981    4.4330    0.0000 C   0  0  0  0  0  0  0  0  0  0  0  0
    6.0981    3.5670    0.0000 C   0  0  0  0  0  0  0  0  0  0  0  0
    3.7320   -1.7990    0.0000 C   0  0  0  0  0  0  0  0  0  0  0  0
    5.0981    5.2990    0.0000 C   0  0  0  0  0  0  0  0  0  0  0  0
    6.5981    4.4330    0.0000 C   0  0  0  0  0  0  0  0  0  0  0  0
    2.8660   -2.2990    0.0000 C   0  0  0  0  0  0  0  0  0  0  0  0
    6.0981    5.2990    0.0000 C   0  0  0  0  0  0  0  0  0  0  0  0
    2.8660   -3.2990    0.0000 C   0  0  0  0  0  0  0  0  0  0  0  0
    2.0000   -3.7990    0.0000 C   0  0  0  0  0  0  0  0  0  0  0  0
    3.7320   -3.7990    0.0000 C   0  0  0  0  0  0  0  0  0  0  0  0
    2.0000   -4.7990    0.0000 C   0  0  0  0  0  0  0  0  0  0  0  0
    3.7320   -4.7990    0.0000 C   0  0  0  0  0  0  0  0  0  0  0  0
    2.8660   -5.2990    0.0000 C   0  0  0  0  0  0  0  0  0  0  0  0
    3.5200    2.7836    0.0000 H   0  0  0  0  0  0  0  0  0  0  0  0
    3.1215    2.0933    0.0000 H   0  0  0  0  0  0  0  0  0  0  0  0
    6.0747    2.0933    0.0000 H   0  0  0  0  0  0  0  0  0  0  0  0
    5.6762    2.7836    0.0000 H   0  0  0  0  0  0  0  0  0  0  0  0
    3.1215    1.3086    0.0000 H   0  0  0  0  0  0  0  0  0  0  0  0
    3.5200    0.6184    0.0000 H   0  0  0  0  0  0  0  0  0  0  0  0
    5.6762    0.6184    0.0000 H   0  0  0  0  0  0  0  0  0  0  0  0
    6.0747    1.3086    0.0000 H   0  0  0  0  0  0  0  0  0  0  0  0
    4.8101   -0.8816    0.0000 H   0  0  0  0  0  0  0  0  0  0  0  0
    5.2087   -0.1914    0.0000 H   0  0  0  0  0  0  0  0  0  0  0  0
    3.5200   -0.2164    0.0000 H   0  0  0  0  0  0  0  0  0  0  0  0
    3.1215   -0.9067    0.0000 H   0  0  0  0  0  0  0  0  0  0  0  0
    3.4781    3.5670    0.0000 H   0  0  0  0  0  0  0  0  0  0  0  0
    3.9781    4.4330    0.0000 H   0  0  0  0  0  0  0  0  0  0  0  0
    6.4081    3.0300    0.0000 H   0  0  0  0  0  0  0  0  0  0  0  0
    3.9441   -2.3816    0.0000 H   0  0  0  0  0  0  0  0  0  0  0  0
    4.3426   -1.6914    0.0000 H   0  0  0  0  0  0  0  0  0  0  0  0
    4.7881    5.8360    0.0000 H   0  0  0  0  0  0  0  0  0  0  0  0
    7.2181    4.4330    0.0000 H   0  0  0  0  0  0  0  0  0  0  0  0
    6.4081    5.8360    0.0000 H   0  0  0  0  0  0  0  0  0  0  0  0
    1.4631   -3.4890    0.0000 H   0  0  0  0  0  0  0  0  0  0  0  0
    4.2690   -3.4890    0.0000 H   0  0  0  0  0  0  0  0  0  0  0  0
    1.4631   -5.1090    0.0000 H   0  0  0  0  0  0  0  0  0  0  0  0
    4.2690   -5.1090    0.0000 H   0  0  0  0  0  0  0  0  0  0  0  0
    2.8660   -5.9190    0.0000 H   0  0  0  0  0  0  0  0  0  0  0  0
  1  4  1  0  0  0  0
  1 37  1  0  0  0  0
  2 17  2  0  0  0  0
  3  7  1  0  0  0  0
  3  8  1  0  0  0  0
  3  9  1  0  0  0  0
  4  5  1  0  0  0  0
  4  6  1  0  0  0  0
  4 10  1  0  0  0  0
  5  7  1  0  0  0  0
  5 25  1  0  0  0  0
  5 26  1  0  0  0  0
  6  8  1  0  0  0  0
  6 27  1  0  0  0  0
  6 28  1  0  0  0  0
  7 29  1  0  0  0  0
  7 30  1  0  0  0  0
  8 31  1  0  0  0  0
  8 32  1  0  0  0  0
  9 11  1  0  0  0  0
  9 33  1  0  0  0  0
  9 34  1  0  0  0  0
 10 12  2  0  0  0  0
 10 13  1  0  0  0  0
 11 14  1  0  0  0  0
 11 35  1  0  0  0  0
 11 36  1  0  0  0  0
 12 15  1  0  0  0  0
 12 38  1  0  0  0  0
 13 16  2  0  0  0  0
 13 39  1  0  0  0  0
 14 17  1  0  0  0  0
 14 40  1  0  0  0  0
 14 41  1  0  0  0  0
 15 18  2  0  0  0  0
 15 42  1  0  0  0  0
 16 18  1  0  0  0  0
 16 43  1  0  0  0  0
 17 19  1  0  0  0  0
 18 44  1  0  0  0  0
 19 20  2  0  0  0  0
 19 21  1  0  0  0  0
 20 22  1  0  0  0  0
 20 45  1  0  0  0  0
 21 23  2  0  0  0  0
 21 46  1  0  0  0  0
 22 24  2  0  0  0  0
 22 47  1  0  0  0  0
 23 24  1  0  0  0  0
 23 48  1  0  0  0  0
 24 49  1  0  0  0  0
M  END
> <PUBCHEM_COMPOUND_CID>
23424166

> <PUBCHEM_COMPOUND_CANONICALIZED>
1

> <PUBCHEM_CACTVS_COMPLEXITY>
389

> <PUBCHEM_CACTVS_HBOND_ACCEPTOR>
3

> <PUBCHEM_CACTVS_HBOND_DONOR>
1

> <PUBCHEM_CACTVS_ROTATABLE_BOND>
6

> <PUBCHEM_CACTVS_SUBSKEYS>
AAADceB6MAAAAAAAAAAAAAAAAAAAAAAAAAA8YIAAAAAAAAABQAAAHgAACAAADETBmAQwAIMAAgCIAqBSAAACAAAkAAAIiAEICMgIJjKAlRCEcQAmwAGImYecyOCOgAAAAAAAAAAAAAAAAAAAAAAAAAAAAA==

> <PUBCHEM_IUPAC_OPENEYE_NAME>
4-(4-hydroxy-4-phenyl-1-piperidyl)-1-phenyl-butan-1-one

> <PUBCHEM_IUPAC_CAS_NAME>
4-(4-hydroxy-4-phenyl-1-piperidinyl)-1-phenyl-1-butanone

> <PUBCHEM_IUPAC_NAME_MARKUP>
4-(4-hydroxy-4-phenylpiperidin-1-yl)-1-phenylbutan-1-one

> <PUBCHEM_IUPAC_NAME>
4-(4-hydroxy-4-phenylpiperidin-1-yl)-1-phenylbutan-1-one

> <PUBCHEM_IUPAC_SYSTEMATIC_NAME>
4-(4-oxidanyl-4-phenyl-piperidin-1-yl)-1-phenyl-butan-1-one

> <PUBCHEM_IUPAC_TRADITIONAL_NAME>
4-(4-hydroxy-4-phenyl-piperidino)-1-phenyl-butan-1-one

> <PUBCHEM_IUPAC_INCHI>
InChI=1S/C21H25NO2/c23-20(18-8-3-1-4-9-18)12-7-15-22-16-13-21(24,14-17-22)19-10-5-2-6-11-19/h1-6,8-11,24H,7,12-17H2

> <PUBCHEM_IUPAC_INCHIKEY>
IOCMJUXJUBZFSJ-UHFFFAOYSA-N

> <PUBCHEM_XLOGP3>
2.5

> <PUBCHEM_EXACT_MASS>
323.188529040

> <PUBCHEM_MOLECULAR_FORMULA>
C21H25NO2

> <PUBCHEM_MOLECULAR_WEIGHT>
323.4

> <PUBCHEM_OPENEYE_CAN_SMILES>
C1CN(CCC1(C2=CC=CC=C2)O)CCCC(=O)C3=CC=CC=C3

> <PUBCHEM_OPENEYE_ISO_SMILES>
C1CN(CCC1(C2=CC=CC=C2)O)CCCC(=O)C3=CC=CC=C3

> <PUBCHEM_CACTVS_TPSA>
40.5

> <PUBCHEM_MONOISOTOPIC_WEIGHT>
323.188529040

> <PUBCHEM_TOTAL_CHARGE>
0

> <PUBCHEM_HEAVY_ATOM_COUNT>
24

> <PUBCHEM_ATOM_DEF_STEREO_COUNT>
0

> <PUBCHEM_ATOM_UDEF_STEREO_COUNT>
0

> <PUBCHEM_BOND_DEF_STEREO_COUNT>
0

> <PUBCHEM_BOND_UDEF_STEREO_COUNT>
0

> <PUBCHEM_ISOTOPIC_ATOM_COUNT>
0

> <PUBCHEM_COMPONENT_COUNT>
1

> <PUBCHEM_CACTVS_TAUTO_COUNT>
-1

> <PUBCHEM_COORDINATE_TYPE>
1
5
255

> <PUBCHEM_BONDANNOTATIONS>
10  12  8
10  13  8
12  15  8
13  16  8
15  18  8
16  18  8
19  20  8
19  21  8
20  22  8
21  23  8
22  24  8
23  24  8

$$$$
