44273720
  -OEChem-09292322202D

 61 63  0     0  0  0  0  0  0999 V2000
    2.8660   -6.6160    0.0000 Cl  0  0  0  0  0  0  0  0  0  0  0  0
    6.3301    3.3840    0.0000 O   0  0  0  0  0  0  0  0  0  0  0  0
    2.8660   -0.6160    0.0000 N   0  0  0  0  0  0  0  0  0  0  0  0
    4.5981    3.3840    0.0000 N   0  0  0  0  0  0  0  0  0  0  0  0
    2.8660   -2.6160    0.0000 N   0  0  0  0  0  0  0  0  0  0  0  0
    5.4641    4.8840    0.0000 C   0  0  0  0  0  0  0  0  0  0  0  0
    5.9641    5.7500    0.0000 C   0  0  0  0  0  0  0  0  0  0  0  0
    4.4641    4.8840    0.0000 C   0  0  0  0  0  0  0  0  0  0  0  0
    5.4641    6.6160    0.0000 C   0  0  0  0  0  0  0  0  0  0  0  0
    3.9641    5.7500    0.0000 C   0  0  0  0  0  0  0  0  0  0  0  0
    4.4641    6.6160    0.0000 C   0  0  0  0  0  0  0  0  0  0  0  0
    6.3301    4.3840    0.0000 C   0  0  0  0  0  0  0  0  0  0  0  0
    5.4641    3.8840    0.0000 C   0  0  0  0  0  0  0  0  0  0  0  0
    2.8660    0.3840    0.0000 C   0  0  0  0  0  0  0  0  0  0  0  0
    3.7320   -1.1160    0.0000 C   0  0  0  0  0  0  0  0  0  0  0  0
    2.0000   -1.1160    0.0000 C   0  0  0  0  0  0  0  0  0  0  0  0
    4.5981    2.3840    0.0000 C   0  0  0  0  0  0  0  0  0  0  0  0
    3.7320    0.8840    0.0000 C   0  0  0  0  0  0  0  0  0  0  0  0
    3.7320    1.8840    0.0000 C   0  0  0  0  0  0  0  0  0  0  0  0
    3.7320   -2.1160    0.0000 C   0  0  0  0  0  0  0  0  0  0  0  0
    2.0000   -2.1160    0.0000 C   0  0  0  0  0  0  0  0  0  0  0  0
    2.8660   -3.6160    0.0000 C   0  0  0  0  0  0  0  0  0  0  0  0
    3.7320   -4.1160    0.0000 C   0  0  0  0  0  0  0  0  0  0  0  0
    2.0000   -4.1160    0.0000 C   0  0  0  0  0  0  0  0  0  0  0  0
    3.7320   -5.1160    0.0000 C   0  0  0  0  0  0  0  0  0  0  0  0
    2.0000   -5.1160    0.0000 C   0  0  0  0  0  0  0  0  0  0  0  0
    2.8660   -5.6160    0.0000 C   0  0  0  0  0  0  0  0  0  0  0  0
    6.4390    5.3515    0.0000 H   0  0  0  0  0  0  0  0  0  0  0  0
    6.4390    6.1485    0.0000 H   0  0  0  0  0  0  0  0  0  0  0  0
    3.8815    4.6719    0.0000 H   0  0  0  0  0  0  0  0  0  0  0  0
    4.5718    4.2734    0.0000 H   0  0  0  0  0  0  0  0  0  0  0  0
    6.0467    6.8281    0.0000 H   0  0  0  0  0  0  0  0  0  0  0  0
    5.3564    7.2266    0.0000 H   0  0  0  0  0  0  0  0  0  0  0  0
    3.4892    6.1485    0.0000 H   0  0  0  0  0  0  0  0  0  0  0  0
    3.4892    5.3515    0.0000 H   0  0  0  0  0  0  0  0  0  0  0  0
    4.5718    7.2266    0.0000 H   0  0  0  0  0  0  0  0  0  0  0  0
    3.8815    6.8281    0.0000 H   0  0  0  0  0  0  0  0  0  0  0  0
    6.0201    3.8470    0.0000 H   0  0  0  0  0  0  0  0  0  0  0  0
    6.8671    4.0740    0.0000 H   0  0  0  0  0  0  0  0  0  0  0  0
    6.6401    4.9209    0.0000 H   0  0  0  0  0  0  0  0  0  0  0  0
    4.0611    3.6940    0.0000 H   0  0  0  0  0  0  0  0  0  0  0  0
    2.6540    0.9666    0.0000 H   0  0  0  0  0  0  0  0  0  0  0  0
    2.2554    0.2763    0.0000 H   0  0  0  0  0  0  0  0  0  0  0  0
    4.3426   -1.2237    0.0000 H   0  0  0  0  0  0  0  0  0  0  0  0
    3.9441   -0.5334    0.0000 H   0  0  0  0  0  0  0  0  0  0  0  0
    1.7880   -0.5334    0.0000 H   0  0  0  0  0  0  0  0  0  0  0  0
    1.3894   -1.2237    0.0000 H   0  0  0  0  0  0  0  0  0  0  0  0
    4.8101    1.8014    0.0000 H   0  0  0  0  0  0  0  0  0  0  0  0
    5.2087    2.4916    0.0000 H   0  0  0  0  0  0  0  0  0  0  0  0
    3.9441    0.3014    0.0000 H   0  0  0  0  0  0  0  0  0  0  0  0
    4.3426    0.9916    0.0000 H   0  0  0  0  0  0  0  0  0  0  0  0
    3.9441   -2.6986    0.0000 H   0  0  0  0  0  0  0  0  0  0  0  0
    4.3426   -2.0084    0.0000 H   0  0  0  0  0  0  0  0  0  0  0  0
    1.3894   -2.0084    0.0000 H   0  0  0  0  0  0  0  0  0  0  0  0
    1.7880   -2.6986    0.0000 H   0  0  0  0  0  0  0  0  0  0  0  0
    3.5200    2.4666    0.0000 H   0  0  0  0  0  0  0  0  0  0  0  0
    3.1215    1.7763    0.0000 H   0  0  0  0  0  0  0  0  0  0  0  0
    4.2690   -3.8060    0.0000 H   0  0  0  0  0  0  0  0  0  0  0  0
    1.4631   -3.8060    0.0000 H   0  0  0  0  0  0  0  0  0  0  0  0
    4.2690   -5.4260    0.0000 H   0  0  0  0  0  0  0  0  0  0  0  0
    1.4631   -5.4260    0.0000 H   0  0  0  0  0  0  0  0  0  0  0  0
  1 27  1  0  0  0  0
  2 13  2  0  0  0  0
  3 14  1  0  0  0  0
  3 15  1  0  0  0  0
  3 16  1  0  0  0  0
  4 13  1  0  0  0  0
  4 17  1  0  0  0  0
  4 41  1  0  0  0  0
  5 20  1  0  0  0  0
  5 21  1  0  0  0  0
  5 22  1  0  0  0  0
  6  7  1  0  0  0  0
  6  8  1  0  0  0  0
  6 12  1  0  0  0  0
  6 13  1  0  0  0  0
  7  9  1  0  0  0  0
  7 28  1  0  0  0  0
  7 29  1  0  0  0  0
  8 10  1  0  0  0  0
  8 30  1  0  0  0  0
  8 31  1  0  0  0  0
  9 11  1  0  0  0  0
  9 32  1  0  0  0  0
  9 33  1  0  0  0  0
 10 11  1  0  0  0  0
 10 34  1  0  0  0  0
 10 35  1  0  0  0  0
 11 36  1  0  0  0  0
 11 37  1  0  0  0  0
 12 38  1  0  0  0  0
 12 39  1  0  0  0  0
 12 40  1  0  0  0  0
 14 18  1  0  0  0  0
 14 42  1  0  0  0  0
 14 43  1  0  0  0  0
 15 20  1  0  0  0  0
 15 44  1  0  0  0  0
 15 45  1  0  0  0  0
 16 21  1  0  0  0  0
 16 46  1  0  0  0  0
 16 47  1  0  0  0  0
 17 19  1  0  0  0  0
 17 48  1  0  0  0  0
 17 49  1  0  0  0  0
 18 19  1  0  0  0  0
 18 50  1  0  0  0  0
 18 51  1  0  0  0  0
 19 56  1  0  0  0  0
 19 57  1  0  0  0  0
 20 52  1  0  0  0  0
 20 53  1  0  0  0  0
 21 54  1  0  0  0  0
 21 55  1  0  0  0  0
 22 23  2  0  0  0  0
 22 24  1  0  0  0  0
 23 25  1  0  0  0  0
 23 58  1  0  0  0  0
 24 26  2  0  0  0  0
 24 59  1  0  0  0  0
 25 27  2  0  0  0  0
 25 60  1  0  0  0  0
 26 27  1  0  0  0  0
 26 61  1  0  0  0  0
M  END
> <PUBCHEM_COMPOUND_CID>
44273720

> <PUBCHEM_COMPOUND_CANONICALIZED>
1

> <PUBCHEM_CACTVS_COMPLEXITY>
451

> <PUBCHEM_CACTVS_HBOND_ACCEPTOR>
3

> <PUBCHEM_CACTVS_HBOND_DONOR>
1

> <PUBCHEM_CACTVS_ROTATABLE_BOND>
7

> <PUBCHEM_CACTVS_SUBSKEYS>
AAADcfB7IAAEAAAAAAAAAAAAAAAAAAAAAAA8YIAAAAAAAAABAAAAHgIQAAAADgrBkCQywIPAAACIACVSUACCAAAhBwAIiIEIZogIYDLBk5GUIAhglgDIyAcYiECPAABAAAAAAAAAAIAAAAAAAAAAAAAAAA==

> <PUBCHEM_IUPAC_OPENEYE_NAME>
N-[4-[4-(4-chlorophenyl)piperazin-1-yl]butyl]-1-methyl-cyclohexanecarboxamide

> <PUBCHEM_IUPAC_CAS_NAME>
N-[4-[4-(4-chlorophenyl)-1-piperazinyl]butyl]-1-methyl-1-cyclohexanecarboxamide

> <PUBCHEM_IUPAC_NAME_MARKUP>
<I>N</I>-[4-[4-(4-chlorophenyl)piperazin-1-yl]butyl]-1-methylcyclohexane-1-carboxamide

> <PUBCHEM_IUPAC_NAME>
N-[4-[4-(4-chlorophenyl)piperazin-1-yl]butyl]-1-methylcyclohexane-1-carboxamide

> <PUBCHEM_IUPAC_SYSTEMATIC_NAME>
N-[4-[4-(4-chlorophenyl)piperazin-1-yl]butyl]-1-methyl-cyclohexane-1-carboxamide

> <PUBCHEM_IUPAC_TRADITIONAL_NAME>
N-[4-[4-(4-chlorophenyl)piperazino]butyl]-1-methyl-cyclohexanecarboxamide

> <PUBCHEM_IUPAC_INCHI>
InChI=1S/C22H34ClN3O/c1-22(11-3-2-4-12-22)21(27)24-13-5-6-14-25-15-17-26(18-16-25)20-9-7-19(23)8-10-20/h7-10H,2-6,11-18H2,1H3,(H,24,27)

> <PUBCHEM_IUPAC_INCHIKEY>
UFWPYANZTHOAEN-UHFFFAOYSA-N

> <PUBCHEM_XLOGP3_AA>
5

> <PUBCHEM_EXACT_MASS>
391.2390404

> <PUBCHEM_MOLECULAR_FORMULA>
C22H34ClN3O

> <PUBCHEM_MOLECULAR_WEIGHT>
392.0

> <PUBCHEM_OPENEYE_CAN_SMILES>
CC1(CCCCC1)C(=O)NCCCCN2CCN(CC2)C3=CC=C(C=C3)Cl

> <PUBCHEM_OPENEYE_ISO_SMILES>
CC1(CCCCC1)C(=O)NCCCCN2CCN(CC2)C3=CC=C(C=C3)Cl

> <PUBCHEM_CACTVS_TPSA>
35.6

> <PUBCHEM_MONOISOTOPIC_WEIGHT>
391.2390404

> <PUBCHEM_TOTAL_CHARGE>
0

> <PUBCHEM_HEAVY_ATOM_COUNT>
27

> <PUBCHEM_ATOM_DEF_STEREO_COUNT>
0

> <PUBCHEM_ATOM_UDEF_STEREO_COUNT>
0

> <PUBCHEM_BOND_DEF_STEREO_COUNT>
0

> <PUBCHEM_BOND_UDEF_STEREO_COUNT>
0

> <PUBCHEM_ISOTOPIC_ATOM_COUNT>
0

> <PUBCHEM_COMPONENT_COUNT>
1

> <PUBCHEM_CACTVS_TAUTO_COUNT>
-1

> <PUBCHEM_COORDINATE_TYPE>
1
5
255

> <PUBCHEM_BONDANNOTATIONS>
22  23  8
22  24  8
23  25  8
24  26  8
25  27  8
26  27  8

$$$$
