141801399
  -OEChem-09292322422D

 37 40  0     1  0  0  0  0  0999 V2000
    7.7925   -1.2831    0.0000 N   0  0  3  0  0  0  0  0  0  0  0  0
    2.5381    0.7380    0.0000 N   0  0  0  0  0  0  0  0  0  0  0  0
    6.9343   -0.7862    0.0000 C   0  0  3  0  0  0  0  0  0  0  0  0
    6.9343    0.2138    0.0000 C   0  0  0  0  0  0  0  0  0  0  0  0
    6.0682   -1.2862    0.0000 C   0  0  0  0  0  0  0  0  0  0  0  0
    7.8443    0.7207    0.0000 C   0  0  0  0  0  0  0  0  0  0  0  0
    8.6580   -0.7989    0.0000 C   0  0  0  0  0  0  0  0  0  0  0  0
    8.6836    0.1924    0.0000 C   0  0  0  0  0  0  0  0  0  0  0  0
    6.0682    0.7138    0.0000 C   0  0  0  0  0  0  0  0  0  0  0  0
    5.2022   -0.7862    0.0000 C   0  0  0  0  0  0  0  0  0  0  0  0
    5.2022    0.2138    0.0000 C   0  0  0  0  0  0  0  0  0  0  0  0
    7.7851   -2.2831    0.0000 C   0  0  0  0  0  0  0  0  0  0  0  0
    7.8523    1.7623    0.0000 C   0  0  0  0  0  0  0  0  0  0  0  0
    6.0522    1.7553    0.0000 C   0  0  0  0  0  0  0  0  0  0  0  0
    4.3083   -1.3208    0.0000 C   0  0  0  0  0  0  0  0  0  0  0  0
    4.3083    0.7485    0.0000 C   0  0  0  0  0  0  0  0  0  0  0  0
    6.9502    2.2831    0.0000 C   0  0  0  0  0  0  0  0  0  0  0  0
    3.4022    0.2346    0.0000 C   0  0  0  0  0  0  0  0  0  0  0  0
    3.4022   -0.8070    0.0000 C   0  0  0  0  0  0  0  0  0  0  0  0
    6.9339   -1.4062    0.0000 H   0  0  0  0  0  0  0  0  0  0  0  0
    5.6697   -1.7611    0.0000 H   0  0  0  0  0  0  0  0  0  0  0  0
    6.4668   -1.7611    0.0000 H   0  0  0  0  0  0  0  0  0  0  0  0
    8.8597   -1.3852    0.0000 H   0  0  0  0  0  0  0  0  0  0  0  0
    9.2708   -0.7046    0.0000 H   0  0  0  0  0  0  0  0  0  0  0  0
    9.2907    0.0665    0.0000 H   0  0  0  0  0  0  0  0  0  0  0  0
    8.9154    0.7675    0.0000 H   0  0  0  0  0  0  0  0  0  0  0  0
    7.1651   -2.2785    0.0000 H   0  0  0  0  0  0  0  0  0  0  0  0
    7.7805   -2.9031    0.0000 H   0  0  0  0  0  0  0  0  0  0  0  0
    8.4051   -2.2877    0.0000 H   0  0  0  0  0  0  0  0  0  0  0  0
    8.3904    2.0702    0.0000 H   0  0  0  0  0  0  0  0  0  0  0  0
    5.5117    2.0591    0.0000 H   0  0  0  0  0  0  0  0  0  0  0  0
    4.3154   -1.9408    0.0000 H   0  0  0  0  0  0  0  0  0  0  0  0
    4.3154    1.3684    0.0000 H   0  0  0  0  0  0  0  0  0  0  0  0
    6.9478    2.9031    0.0000 H   0  0  0  0  0  0  0  0  0  0  0  0
    2.8665   -1.1191    0.0000 H   0  0  0  0  0  0  0  0  0  0  0  0
    2.0000    0.4300    0.0000 H   0  0  0  0  0  0  0  0  0  0  0  0
    2.5405    1.3580    0.0000 H   0  0  0  0  0  0  0  0  0  0  0  0
  1  3  1  0  0  0  0
  1  7  1  0  0  0  0
  1 12  1  0  0  0  0
  2 18  1  0  0  0  0
  2 36  1  0  0  0  0
  2 37  1  0  0  0  0
  3  4  1  0  0  0  0
  3  5  1  0  0  0  0
  3 20  1  0  0  0  0
  4  6  2  0  0  0  0
  4  9  1  0  0  0  0
  5 10  1  0  0  0  0
  5 21  1  0  0  0  0
  5 22  1  0  0  0  0
  6  8  1  0  0  0  0
  6 13  1  0  0  0  0
  7  8  1  0  0  0  0
  7 23  1  0  0  0  0
  7 24  1  0  0  0  0
  8 25  1  0  0  0  0
  8 26  1  0  0  0  0
  9 11  1  0  0  0  0
  9 14  2  0  0  0  0
 10 11  2  0  0  0  0
 10 15  1  0  0  0  0
 11 16  1  0  0  0  0
 12 27  1  0  0  0  0
 12 28  1  0  0  0  0
 12 29  1  0  0  0  0
 13 17  2  0  0  0  0
 13 30  1  0  0  0  0
 14 17  1  0  0  0  0
 14 31  1  0  0  0  0
 15 19  2  0  0  0  0
 15 32  1  0  0  0  0
 16 18  2  0  0  0  0
 16 33  1  0  0  0  0
 17 34  1  0  0  0  0
 18 19  1  0  0  0  0
 19 35  1  0  0  0  0
M  END
> <PUBCHEM_COMPOUND_CID>
141801399

> <PUBCHEM_COMPOUND_CANONICALIZED>
1

> <PUBCHEM_CACTVS_COMPLEXITY>
342

> <PUBCHEM_CACTVS_HBOND_ACCEPTOR>
2

> <PUBCHEM_CACTVS_HBOND_DONOR>
1

> <PUBCHEM_CACTVS_ROTATABLE_BOND>
0

> <PUBCHEM_CACTVS_SUBSKEYS>
AAADceB7AAAAAAAAAAAAAAAAAAAAAAAAAAA8YMEAAAAAAADxQAAAHAAQAAAADCjBGAQywINAAACAAiRCQACCAAAgAgAIiAAIZIgIICKAkZGEIAhgkACIyAcQgMAOiAACQAAQAACQAASAACQAAAAAAAAAAA==

> <PUBCHEM_IUPAC_OPENEYE_NAME>
6-methyl-5,6,6a,7-tetrahydro-4H-dibenzo[de,g]quinolin-10-amine

> <PUBCHEM_IUPAC_CAS_NAME>
6-methyl-5,6,6a,7-tetrahydro-4H-dibenzo[de,g]quinolin-10-amine

> <PUBCHEM_IUPAC_NAME_MARKUP>
6-methyl-5,6,6<I>a</I>,7-tetrahydro-4<I>H</I>-dibenzo[de,g]quinolin-10-amine

> <PUBCHEM_IUPAC_NAME>
6-methyl-5,6,6a,7-tetrahydro-4H-dibenzo[de,g]quinolin-10-amine

> <PUBCHEM_IUPAC_SYSTEMATIC_NAME>
6-methyl-5,6,6a,7-tetrahydro-4H-dibenzo[de,g]quinolin-10-amine

> <PUBCHEM_IUPAC_TRADITIONAL_NAME>
(6-methyl-5,6,6a,7-tetrahydro-4H-dibenzo[de,g]quinolin-10-yl)amine

> <PUBCHEM_IUPAC_INCHI>
InChI=1S/C17H18N2/c1-19-8-7-11-3-2-4-14-15-10-13(18)6-5-12(15)9-16(19)17(11)14/h2-6,10,16H,7-9,18H2,1H3

> <PUBCHEM_IUPAC_INCHIKEY>
URQQQDVXUYDCNP-UHFFFAOYSA-N

> <PUBCHEM_XLOGP3>
2.3

> <PUBCHEM_EXACT_MASS>
250.146998583

> <PUBCHEM_MOLECULAR_FORMULA>
C17H18N2

> <PUBCHEM_MOLECULAR_WEIGHT>
250.34

> <PUBCHEM_OPENEYE_CAN_SMILES>
CN1CCC2=C3C1CC4=C(C3=CC=C2)C=C(C=C4)N

> <PUBCHEM_OPENEYE_ISO_SMILES>
CN1CCC2=C3C1CC4=C(C3=CC=C2)C=C(C=C4)N

> <PUBCHEM_CACTVS_TPSA>
29.3

> <PUBCHEM_MONOISOTOPIC_WEIGHT>
250.146998583

> <PUBCHEM_TOTAL_CHARGE>
0

> <PUBCHEM_HEAVY_ATOM_COUNT>
19

> <PUBCHEM_ATOM_DEF_STEREO_COUNT>
0

> <PUBCHEM_ATOM_UDEF_STEREO_COUNT>
1

> <PUBCHEM_BOND_DEF_STEREO_COUNT>
0

> <PUBCHEM_BOND_UDEF_STEREO_COUNT>
0

> <PUBCHEM_ISOTOPIC_ATOM_COUNT>
0

> <PUBCHEM_COMPONENT_COUNT>
1

> <PUBCHEM_CACTVS_TAUTO_COUNT>
-1

> <PUBCHEM_COORDINATE_TYPE>
1
5
255

> <PUBCHEM_BONDANNOTATIONS>
10  11  8
10  15  8
11  16  8
13  17  8
14  17  8
15  19  8
16  18  8
18  19  8
3  5  3
4  6  8
4  9  8
6  13  8
9  14  8

$$$$
