52949578
  -OEChem-09292322042D

 48 49  0     1  0  0  0  0  0999 V2000
    6.3301   -1.3209    0.0000 F   0  0  0  0  0  0  0  0  0  0  0  0
    3.7320    0.1791    0.0000 O   0  0  0  0  0  0  0  0  0  0  0  0
    2.8660   -1.3209    0.0000 O   0  0  0  0  0  0  0  0  0  0  0  0
    2.8660   -3.3209    0.0000 O   0  0  0  0  0  0  0  0  0  0  0  0
    6.4347    2.6736    0.0000 N   0  0  3  0  0  0  0  0  0  0  0  0
    5.4641    0.1791    0.0000 N   0  0  0  0  0  0  0  0  0  0  0  0
    6.3301    1.6791    0.0000 C   0  0  1  0  0  0  0  0  0  0  0  0
    7.2437    1.2724    0.0000 C   0  0  0  0  0  0  0  0  0  0  0  0
    7.9128    2.0155    0.0000 C   0  0  0  0  0  0  0  0  0  0  0  0
    7.4128    2.8815    0.0000 C   0  0  0  0  0  0  0  0  0  0  0  0
    5.4641    1.1791    0.0000 C   0  0  0  0  0  0  0  0  0  0  0  0
    5.6915    3.3428    0.0000 C   0  0  0  0  0  0  0  0  0  0  0  0
    5.8994    4.3209    0.0000 C   0  0  0  0  0  0  0  0  0  0  0  0
    4.5981   -0.3209    0.0000 C   0  0  0  0  0  0  0  0  0  0  0  0
    4.5981   -1.3209    0.0000 C   0  0  0  0  0  0  0  0  0  0  0  0
    5.4641   -1.8209    0.0000 C   0  0  0  0  0  0  0  0  0  0  0  0
    3.7320   -1.8209    0.0000 C   0  0  0  0  0  0  0  0  0  0  0  0
    5.4641   -2.8209    0.0000 C   0  0  0  0  0  0  0  0  0  0  0  0
    3.7320   -2.8209    0.0000 C   0  0  0  0  0  0  0  0  0  0  0  0
    6.3301   -3.3209    0.0000 C   0  0  0  0  0  0  0  0  0  0  0  0
    4.5981   -3.3209    0.0000 C   0  0  0  0  0  0  0  0  0  0  0  0
    6.3301   -4.3209    0.0000 C   0  0  0  0  0  0  0  0  0  0  0  0
    2.0000   -1.8209    0.0000 C   0  0  0  0  0  0  0  0  0  0  0  0
    5.8102    2.0168    0.0000 H   0  0  0  0  0  0  0  0  0  0  0  0
    6.9337    0.7354    0.0000 H   0  0  0  0  0  0  0  0  0  0  0  0
    7.7453    0.9079    0.0000 H   0  0  0  0  0  0  0  0  0  0  0  0
    8.3277    1.5548    0.0000 H   0  0  0  0  0  0  0  0  0  0  0  0
    8.4144    2.3799    0.0000 H   0  0  0  0  0  0  0  0  0  0  0  0
    7.9792    3.1337    0.0000 H   0  0  0  0  0  0  0  0  0  0  0  0
    7.2212    3.4712    0.0000 H   0  0  0  0  0  0  0  0  0  0  0  0
    5.2520    1.7617    0.0000 H   0  0  0  0  0  0  0  0  0  0  0  0
    4.8535    1.0714    0.0000 H   0  0  0  0  0  0  0  0  0  0  0  0
    5.1167    3.5750    0.0000 H   0  0  0  0  0  0  0  0  0  0  0  0
    5.3630    2.8170    0.0000 H   0  0  0  0  0  0  0  0  0  0  0  0
    6.0010   -0.1309    0.0000 H   0  0  0  0  0  0  0  0  0  0  0  0
    6.5059    4.1920    0.0000 H   0  0  0  0  0  0  0  0  0  0  0  0
    6.0283    4.9274    0.0000 H   0  0  0  0  0  0  0  0  0  0  0  0
    5.2930    4.4498    0.0000 H   0  0  0  0  0  0  0  0  0  0  0  0
    6.9407   -3.4286    0.0000 H   0  0  0  0  0  0  0  0  0  0  0  0
    6.5422   -2.7383    0.0000 H   0  0  0  0  0  0  0  0  0  0  0  0
    4.5981   -3.9409    0.0000 H   0  0  0  0  0  0  0  0  0  0  0  0
    5.7101   -4.3209    0.0000 H   0  0  0  0  0  0  0  0  0  0  0  0
    6.3301   -4.9409    0.0000 H   0  0  0  0  0  0  0  0  0  0  0  0
    6.9501   -4.3209    0.0000 H   0  0  0  0  0  0  0  0  0  0  0  0
    2.8660   -3.9409    0.0000 H   0  0  0  0  0  0  0  0  0  0  0  0
    1.6900   -1.2840    0.0000 H   0  0  0  0  0  0  0  0  0  0  0  0
    1.4631   -2.1309    0.0000 H   0  0  0  0  0  0  0  0  0  0  0  0
    2.3100   -2.3578    0.0000 H   0  0  0  0  0  0  0  0  0  0  0  0
  1 16  1  0  0  0  0
  2 14  2  0  0  0  0
  3 17  1  0  0  0  0
  3 23  1  0  0  0  0
  4 19  1  0  0  0  0
  4 45  1  0  0  0  0
  5  7  1  0  0  0  0
  5 10  1  0  0  0  0
  5 12  1  0  0  0  0
  6 11  1  0  0  0  0
  6 14  1  0  0  0  0
  6 35  1  0  0  0  0
  7  8  1  0  0  0  0
  7 11  1  1  0  0  0
  7 24  1  0  0  0  0
  8  9  1  0  0  0  0
  8 25  1  0  0  0  0
  8 26  1  0  0  0  0
  9 10  1  0  0  0  0
  9 27  1  0  0  0  0
  9 28  1  0  0  0  0
 10 29  1  0  0  0  0
 10 30  1  0  0  0  0
 11 31  1  0  0  0  0
 11 32  1  0  0  0  0
 12 13  1  0  0  0  0
 12 33  1  0  0  0  0
 12 34  1  0  0  0  0
 13 36  1  0  0  0  0
 13 37  1  0  0  0  0
 13 38  1  0  0  0  0
 14 15  1  0  0  0  0
 15 16  2  0  0  0  0
 15 17  1  0  0  0  0
 16 18  1  0  0  0  0
 17 19  2  0  0  0  0
 18 20  1  0  0  0  0
 18 21  2  0  0  0  0
 19 21  1  0  0  0  0
 20 22  1  0  0  0  0
 20 39  1  0  0  0  0
 20 40  1  0  0  0  0
 21 41  1  0  0  0  0
 22 42  1  0  0  0  0
 22 43  1  0  0  0  0
 22 44  1  0  0  0  0
 23 46  1  0  0  0  0
 23 47  1  0  0  0  0
 23 48  1  0  0  0  0
M  END
> <PUBCHEM_COMPOUND_CID>
52949578

> <PUBCHEM_COMPOUND_CANONICALIZED>
1

> <PUBCHEM_CACTVS_COMPLEXITY>
396

> <PUBCHEM_CACTVS_HBOND_ACCEPTOR>
5

> <PUBCHEM_CACTVS_HBOND_DONOR>
2

> <PUBCHEM_CACTVS_ROTATABLE_BOND>
6

> <PUBCHEM_CACTVS_SUBSKEYS>
AAADceB7MQAAAAAAAAAAAAAAAAAAAWAAAAAwAAAAAAAAAAABAAAAHwAQCAAADCzBmA4yBoPABgCIAiFSEACCCAAkIAAAiIEOjMgNZjaGtRuUcWtm9hGLuQe6yPCOIAADAAAIQABAAAYAABCAAAAAAAAAAA==

> <PUBCHEM_IUPAC_OPENEYE_NAME>
3-ethyl-N-[[(2S)-1-ethylpyrrolidin-2-yl]methyl]-2-fluoro-5-hydroxy-6-methoxy-benzamide

> <PUBCHEM_IUPAC_CAS_NAME>
3-ethyl-N-[[(2S)-1-ethyl-2-pyrrolidinyl]methyl]-2-fluoro-5-hydroxy-6-methoxybenzamide

> <PUBCHEM_IUPAC_NAME_MARKUP>
3-ethyl-<I>N</I>-[[(2<I>S</I>)-1-ethylpyrrolidin-2-yl]methyl]-2-fluoro-5-hydroxy-6-methoxybenzamide

> <PUBCHEM_IUPAC_NAME>
3-ethyl-N-[[(2S)-1-ethylpyrrolidin-2-yl]methyl]-2-fluoro-5-hydroxy-6-methoxybenzamide

> <PUBCHEM_IUPAC_SYSTEMATIC_NAME>
3-ethyl-N-[[(2S)-1-ethylpyrrolidin-2-yl]methyl]-2-fluoranyl-6-methoxy-5-oxidanyl-benzamide

> <PUBCHEM_IUPAC_TRADITIONAL_NAME>
3-ethyl-N-[[(2S)-1-ethylpyrrolidin-2-yl]methyl]-2-fluoro-5-hydroxy-6-methoxy-benzamide

> <PUBCHEM_IUPAC_INCHI>
InChI=1S/C17H25FN2O3/c1-4-11-9-13(21)16(23-3)14(15(11)18)17(22)19-10-12-7-6-8-20(12)5-2/h9,12,21H,4-8,10H2,1-3H3,(H,19,22)/t12-/m0/s1

> <PUBCHEM_IUPAC_INCHIKEY>
ZKFYKFLDTDNMAW-LBPRGKRZSA-N

> <PUBCHEM_XLOGP3>
2

> <PUBCHEM_EXACT_MASS>
324.18492083

> <PUBCHEM_MOLECULAR_FORMULA>
C17H25FN2O3

> <PUBCHEM_MOLECULAR_WEIGHT>
324.4

> <PUBCHEM_OPENEYE_CAN_SMILES>
CCC1=CC(=C(C(=C1F)C(=O)NCC2CCCN2CC)OC)O

> <PUBCHEM_OPENEYE_ISO_SMILES>
CCC1=CC(=C(C(=C1F)C(=O)NC[C@@H]2CCCN2CC)OC)O

> <PUBCHEM_CACTVS_TPSA>
61.8

> <PUBCHEM_MONOISOTOPIC_WEIGHT>
324.18492083

> <PUBCHEM_TOTAL_CHARGE>
0

> <PUBCHEM_HEAVY_ATOM_COUNT>
23

> <PUBCHEM_ATOM_DEF_STEREO_COUNT>
1

> <PUBCHEM_ATOM_UDEF_STEREO_COUNT>
0

> <PUBCHEM_BOND_DEF_STEREO_COUNT>
0

> <PUBCHEM_BOND_UDEF_STEREO_COUNT>
0

> <PUBCHEM_ISOTOPIC_ATOM_COUNT>
0

> <PUBCHEM_COMPONENT_COUNT>
1

> <PUBCHEM_CACTVS_TAUTO_COUNT>
-1

> <PUBCHEM_COORDINATE_TYPE>
1
5
255

> <PUBCHEM_BONDANNOTATIONS>
15  16  8
15  17  8
16  18  8
17  19  8
18  21  8
19  21  8
7  11  5

$$$$
