67005301
  -OEChem-09292321592D

 35 36  0     1  0  0  0  0  0999 V2000
    2.7393    0.0000    0.0000 Cl  0  0  0  0  0  0  0  0  0  0  0  0
    1.5169    6.2470    0.0000 O   0  0  0  0  0  0  0  0  0  0  0  0
    5.0253    7.2470    0.0000 O   0  0  0  0  0  0  0  0  0  0  0  0
    1.5169    4.1777    0.0000 N   0  0  3  0  0  0  0  0  0  0  0  0
    2.4109    4.7124    0.0000 C   0  0  1  0  0  0  0  0  0  0  0  0
    2.4109    5.7124    0.0000 C   0  0  1  0  0  0  0  0  0  0  0  0
    3.2769    4.2124    0.0000 C   0  0  0  0  0  0  0  0  0  0  0  0
    3.2769    6.2124    0.0000 C   0  0  0  0  0  0  0  0  0  0  0  0
    4.1429    4.7124    0.0000 C   0  0  0  0  0  0  0  0  0  0  0  0
    4.1429    5.7124    0.0000 C   0  0  0  0  0  0  0  0  0  0  0  0
    0.6109    4.6916    0.0000 C   0  0  0  0  0  0  0  0  0  0  0  0
    0.6109    5.7332    0.0000 C   0  0  0  0  0  0  0  0  0  0  0  0
    1.5285    3.1778    0.0000 C   0  0  0  0  0  0  0  0  0  0  0  0
    5.0369    6.2470    0.0000 C   0  0  0  0  0  0  0  0  0  0  0  0
    5.0369    4.1777    0.0000 C   0  0  0  0  0  0  0  0  0  0  0  0
    5.9429    5.7332    0.0000 C   0  0  0  0  0  0  0  0  0  0  0  0
    5.9429    4.6916    0.0000 C   0  0  0  0  0  0  0  0  0  0  0  0
    2.4174    3.8624    0.0000 H   0  0  0  0  0  0  0  0  0  0  0  0
    2.4174    6.5624    0.0000 H   0  0  0  0  0  0  0  0  0  0  0  0
    2.8784    3.7374    0.0000 H   0  0  0  0  0  0  0  0  0  0  0  0
    3.6754    3.7374    0.0000 H   0  0  0  0  0  0  0  0  0  0  0  0
    3.6754    6.6873    0.0000 H   0  0  0  0  0  0  0  0  0  0  0  0
    2.8784    6.6873    0.0000 H   0  0  0  0  0  0  0  0  0  0  0  0
    0.0000    4.7976    0.0000 H   0  0  0  0  0  0  0  0  0  0  0  0
    0.4018    4.1079    0.0000 H   0  0  0  0  0  0  0  0  0  0  0  0
    0.4018    6.3169    0.0000 H   0  0  0  0  0  0  0  0  0  0  0  0
    0.0000    5.6271    0.0000 H   0  0  0  0  0  0  0  0  0  0  0  0
    0.9085    3.1706    0.0000 H   0  0  0  0  0  0  0  0  0  0  0  0
    1.5357    2.5578    0.0000 H   0  0  0  0  0  0  0  0  0  0  0  0
    2.1484    3.1850    0.0000 H   0  0  0  0  0  0  0  0  0  0  0  0
    5.0297    3.5578    0.0000 H   0  0  0  0  0  0  0  0  0  0  0  0
    6.4787    6.0453    0.0000 H   0  0  0  0  0  0  0  0  0  0  0  0
    6.4787    4.3795    0.0000 H   0  0  0  0  0  0  0  0  0  0  0  0
    5.5586    7.5632    0.0000 H   0  0  0  0  0  0  0  0  0  0  0  0
    3.7393    0.0000    0.0000 H   0  0  0  0  0  0  0  0  0  0  0  0
  1 35  1  0  0  0  0
  2  6  1  0  0  0  0
  2 12  1  0  0  0  0
  3 14  1  0  0  0  0
  3 34  1  0  0  0  0
  4  5  1  0  0  0  0
  4 11  1  0  0  0  0
  4 13  1  0  0  0  0
  5  6  1  0  0  0  0
  5  7  1  0  0  0  0
  5 18  1  6  0  0  0
  6  8  1  0  0  0  0
  6 19  1  1  0  0  0
  7  9  1  0  0  0  0
  7 20  1  0  0  0  0
  7 21  1  0  0  0  0
  8 10  1  0  0  0  0
  8 22  1  0  0  0  0
  8 23  1  0  0  0  0
  9 10  2  0  0  0  0
  9 15  1  0  0  0  0
 10 14  1  0  0  0  0
 11 12  1  0  0  0  0
 11 24  1  0  0  0  0
 11 25  1  0  0  0  0
 12 26  1  0  0  0  0
 12 27  1  0  0  0  0
 13 28  1  0  0  0  0
 13 29  1  0  0  0  0
 13 30  1  0  0  0  0
 14 16  2  0  0  0  0
 15 17  2  0  0  0  0
 15 31  1  0  0  0  0
 16 17  1  0  0  0  0
 16 32  1  0  0  0  0
 17 33  1  0  0  0  0
M  END
> <PUBCHEM_COMPOUND_CID>
67005301

> <PUBCHEM_COMPOUND_CANONICALIZED>
1

> <PUBCHEM_CACTVS_COMPLEXITY>
258

> <PUBCHEM_CACTVS_HBOND_ACCEPTOR>
3

> <PUBCHEM_CACTVS_HBOND_DONOR>
2

> <PUBCHEM_CACTVS_ROTATABLE_BOND>
0

> <PUBCHEM_CACTVS_SUBSKEYS>
AAADceByMAAEAAAAAAAAAAAAAAAAAAAAAAA8YIAAAAAAAADxAAAAHgAACAAADDzhmAYyBoMABgCAAiBCAAACAAAgIAAIiAAOCIgKJiKCkROHcAAkwBGYmAfQ0LMOgAABAAAYAABQAAKAADAgAAAAAAAAAA==

> <PUBCHEM_IUPAC_OPENEYE_NAME>
(4aR,10aR)-4-methyl-2,3,4a,5,10,10a-hexahydrobenzo[g][1,4]benzoxazin-9-ol;hydrochloride

> <PUBCHEM_IUPAC_CAS_NAME>
(4aR,10aR)-4-methyl-2,3,4a,5,10,10a-hexahydrobenzo[g][1,4]benzoxazin-9-ol;hydrochloride

> <PUBCHEM_IUPAC_NAME_MARKUP>
(4<I>a</I><I>R</I>,10<I>a</I><I>R</I>)-4-methyl-2,3,4<I>a</I>,5,10,10<I>a</I>-hexahydrobenzo[g][1,4]benzoxazin-9-ol;hydrochloride

> <PUBCHEM_IUPAC_NAME>
(4aR,10aR)-4-methyl-2,3,4a,5,10,10a-hexahydrobenzo[g][1,4]benzoxazin-9-ol;hydrochloride

> <PUBCHEM_IUPAC_SYSTEMATIC_NAME>
(4aR,10aR)-4-methyl-2,3,4a,5,10,10a-hexahydrobenzo[g][1,4]benzoxazin-9-ol;hydrochloride

> <PUBCHEM_IUPAC_TRADITIONAL_NAME>
(4aR,10aR)-4-methyl-2,3,4a,5,10,10a-hexahydrobenzo[g][1,4]benzoxazin-9-ol;hydrochloride

> <PUBCHEM_IUPAC_INCHI>
InChI=1S/C13H17NO2.ClH/c1-14-5-6-16-13-8-10-9(7-11(13)14)3-2-4-12(10)15;/h2-4,11,13,15H,5-8H2,1H3;1H/t11-,13-;/m1./s1

> <PUBCHEM_IUPAC_INCHIKEY>
VNEAOJOTUTYTOU-LOCPCMAASA-N

> <PUBCHEM_EXACT_MASS>
255.1026065

> <PUBCHEM_MOLECULAR_FORMULA>
C13H18ClNO2

> <PUBCHEM_MOLECULAR_WEIGHT>
255.74

> <PUBCHEM_OPENEYE_CAN_SMILES>
CN1CCOC2C1CC3=C(C2)C(=CC=C3)O.Cl

> <PUBCHEM_OPENEYE_ISO_SMILES>
CN1CCO[C@H]2[C@H]1CC3=C(C2)C(=CC=C3)O.Cl

> <PUBCHEM_CACTVS_TPSA>
32.7

> <PUBCHEM_MONOISOTOPIC_WEIGHT>
255.1026065

> <PUBCHEM_TOTAL_CHARGE>
0

> <PUBCHEM_HEAVY_ATOM_COUNT>
17

> <PUBCHEM_ATOM_DEF_STEREO_COUNT>
2

> <PUBCHEM_ATOM_UDEF_STEREO_COUNT>
0

> <PUBCHEM_BOND_DEF_STEREO_COUNT>
0

> <PUBCHEM_BOND_UDEF_STEREO_COUNT>
0

> <PUBCHEM_ISOTOPIC_ATOM_COUNT>
0

> <PUBCHEM_COMPONENT_COUNT>
2

> <PUBCHEM_CACTVS_TAUTO_COUNT>
-1

> <PUBCHEM_COORDINATE_TYPE>
1
5
255

> <PUBCHEM_BONDANNOTATIONS>
10  14  8
14  16  8
15  17  8
16  17  8
5  18  6
6  19  5
9  10  8
9  15  8

$$$$
