122189392
  -OEChem-09292322002D

 51 55  0     0  0  0  0  0  0999 V2000
    3.9890    2.1727    0.0000 Cl  0  0  0  0  0  0  0  0  0  0  0  0
    2.0000    1.9636    0.0000 Cl  0  0  0  0  0  0  0  0  0  0  0  0
    7.1537    0.7637    0.0000 N   0  0  0  0  0  0  0  0  0  0  0  0
    5.1646    0.5546    0.0000 N   0  0  0  0  0  0  0  0  0  0  0  0
   11.3132   -0.1727    0.0000 N   0  0  0  0  0  0  0  0  0  0  0  0
   10.2305    1.0298    0.0000 N   0  0  0  0  0  0  0  0  0  0  0  0
   11.2086    0.8218    0.0000 N   0  0  0  0  0  0  0  0  0  0  0  0
   13.9112   -1.6727    0.0000 N   0  0  0  0  0  0  0  0  0  0  0  0
   14.8575   -1.9774    0.0000 N   0  0  0  0  0  0  0  0  0  0  0  0
    6.5659    1.5727    0.0000 C   0  0  0  0  0  0  0  0  0  0  0  0
    6.7469   -0.1498    0.0000 C   0  0  0  0  0  0  0  0  0  0  0  0
    5.5714    1.4682    0.0000 C   0  0  0  0  0  0  0  0  0  0  0  0
    5.7524   -0.2544    0.0000 C   0  0  0  0  0  0  0  0  0  0  0  0
    8.1482    0.8682    0.0000 C   0  0  0  0  0  0  0  0  0  0  0  0
    8.7360    0.0592    0.0000 C   0  0  0  0  0  0  0  0  0  0  0  0
    4.1701    0.4501    0.0000 C   0  0  0  0  0  0  0  0  0  0  0  0
    9.7305    0.1637    0.0000 C   0  0  0  0  0  0  0  0  0  0  0  0
    3.5823    1.2591    0.0000 C   0  0  0  0  0  0  0  0  0  0  0  0
    3.7634   -0.4634    0.0000 C   0  0  0  0  0  0  0  0  0  0  0  0
   10.3996   -0.5794    0.0000 C   0  0  0  0  0  0  0  0  0  0  0  0
    2.5878    1.1546    0.0000 C   0  0  0  0  0  0  0  0  0  0  0  0
    2.7688   -0.5680    0.0000 C   0  0  0  0  0  0  0  0  0  0  0  0
   12.1792   -0.6727    0.0000 C   0  0  0  0  0  0  0  0  0  0  0  0
    2.1810    0.2411    0.0000 C   0  0  0  0  0  0  0  0  0  0  0  0
   13.0452   -0.1727    0.0000 C   0  0  0  0  0  0  0  0  0  0  0  0
   13.9112   -0.6727    0.0000 C   0  0  0  0  0  0  0  0  0  0  0  0
   12.1792   -1.6727    0.0000 C   0  0  0  0  0  0  0  0  0  0  0  0
   13.0452   -2.1727    0.0000 C   0  0  0  0  0  0  0  0  0  0  0  0
   14.8575   -0.3679    0.0000 C   0  0  0  0  0  0  0  0  0  0  0  0
   15.4411   -1.1727    0.0000 C   0  0  0  0  0  0  0  0  0  0  0  0
    7.1231    1.8445    0.0000 H   0  0  0  0  0  0  0  0  0  0  0  0
    6.3950    2.1687    0.0000 H   0  0  0  0  0  0  0  0  0  0  0  0
    6.7037   -0.7683    0.0000 H   0  0  0  0  0  0  0  0  0  0  0  0
    7.3485   -0.2998    0.0000 H   0  0  0  0  0  0  0  0  0  0  0  0
    5.6146    2.0867    0.0000 H   0  0  0  0  0  0  0  0  0  0  0  0
    4.9698    1.6182    0.0000 H   0  0  0  0  0  0  0  0  0  0  0  0
    5.1952   -0.5262    0.0000 H   0  0  0  0  0  0  0  0  0  0  0  0
    5.9233   -0.8504    0.0000 H   0  0  0  0  0  0  0  0  0  0  0  0
    8.7054    1.1400    0.0000 H   0  0  0  0  0  0  0  0  0  0  0  0
    7.9773    1.4642    0.0000 H   0  0  0  0  0  0  0  0  0  0  0  0
    8.1787   -0.2126    0.0000 H   0  0  0  0  0  0  0  0  0  0  0  0
    8.9069   -0.5368    0.0000 H   0  0  0  0  0  0  0  0  0  0  0  0
    4.1278   -0.9650    0.0000 H   0  0  0  0  0  0  0  0  0  0  0  0
   10.2707   -1.1859    0.0000 H   0  0  0  0  0  0  0  0  0  0  0  0
    2.5167   -1.1344    0.0000 H   0  0  0  0  0  0  0  0  0  0  0  0
    1.5644    0.1762    0.0000 H   0  0  0  0  0  0  0  0  0  0  0  0
   13.0452    0.4473    0.0000 H   0  0  0  0  0  0  0  0  0  0  0  0
   11.6423   -1.9827    0.0000 H   0  0  0  0  0  0  0  0  0  0  0  0
   13.0452   -2.7927    0.0000 H   0  0  0  0  0  0  0  0  0  0  0  0
   15.0501    0.2214    0.0000 H   0  0  0  0  0  0  0  0  0  0  0  0
   16.0611   -1.1727    0.0000 H   0  0  0  0  0  0  0  0  0  0  0  0
  1 18  1  0  0  0  0
  2 21  1  0  0  0  0
  3 10  1  0  0  0  0
  3 11  1  0  0  0  0
  3 14  1  0  0  0  0
  4 12  1  0  0  0  0
  4 13  1  0  0  0  0
  4 16  1  0  0  0  0
  5  7  1  0  0  0  0
  5 20  1  0  0  0  0
  5 23  1  0  0  0  0
  6  7  2  0  0  0  0
  6 17  1  0  0  0  0
  8  9  1  0  0  0  0
  8 26  1  0  0  0  0
  8 28  1  0  0  0  0
  9 30  2  0  0  0  0
 10 12  1  0  0  0  0
 10 31  1  0  0  0  0
 10 32  1  0  0  0  0
 11 13  1  0  0  0  0
 11 33  1  0  0  0  0
 11 34  1  0  0  0  0
 12 35  1  0  0  0  0
 12 36  1  0  0  0  0
 13 37  1  0  0  0  0
 13 38  1  0  0  0  0
 14 15  1  0  0  0  0
 14 39  1  0  0  0  0
 14 40  1  0  0  0  0
 15 17  1  0  0  0  0
 15 41  1  0  0  0  0
 15 42  1  0  0  0  0
 16 18  2  0  0  0  0
 16 19  1  0  0  0  0
 17 20  2  0  0  0  0
 18 21  1  0  0  0  0
 19 22  2  0  0  0  0
 19 43  1  0  0  0  0
 20 44  1  0  0  0  0
 21 24  2  0  0  0  0
 22 24  1  0  0  0  0
 22 45  1  0  0  0  0
 23 25  2  0  0  0  0
 23 27  1  0  0  0  0
 24 46  1  0  0  0  0
 25 26  1  0  0  0  0
 25 47  1  0  0  0  0
 26 29  2  0  0  0  0
 27 28  2  0  0  0  0
 27 48  1  0  0  0  0
 28 49  1  0  0  0  0
 29 30  1  0  0  0  0
 29 50  1  0  0  0  0
 30 51  1  0  0  0  0
M  END
> <PUBCHEM_COMPOUND_CID>
122189392

> <PUBCHEM_COMPOUND_CANONICALIZED>
1

> <PUBCHEM_CACTVS_COMPLEXITY>
562

> <PUBCHEM_CACTVS_HBOND_ACCEPTOR>
5

> <PUBCHEM_CACTVS_HBOND_DONOR>
0

> <PUBCHEM_CACTVS_ROTATABLE_BOND>
5

> <PUBCHEM_CACTVS_SUBSKEYS>
AAADceB7gAAGAAAAAAAAAAAAAAAAAWLAAAA8WIAAAAAAAFgB/AAAHAIIAAAACArBFiQ8wLMIEACiATRnRACShCQxlyAY2mA4dpgIYOLB09HUpAhgiADIyAcQgAAAAAAAAAIAABQAAAAABAAAKAAAAAAAAA==

> <PUBCHEM_IUPAC_OPENEYE_NAME>
5-[4-[2-[4-(2,3-dichlorophenyl)piperazin-1-yl]ethyl]triazol-1-yl]pyrazolo[1,5-a]pyridine

> <PUBCHEM_IUPAC_CAS_NAME>
5-[4-[2-[4-(2,3-dichlorophenyl)-1-piperazinyl]ethyl]-1-triazolyl]pyrazolo[1,5-a]pyridine

> <PUBCHEM_IUPAC_NAME_MARKUP>
5-[4-[2-[4-(2,3-dichlorophenyl)piperazin-1-yl]ethyl]triazol-1-yl]pyrazolo[1,5-a]pyridine

> <PUBCHEM_IUPAC_NAME>
5-[4-[2-[4-(2,3-dichlorophenyl)piperazin-1-yl]ethyl]triazol-1-yl]pyrazolo[1,5-a]pyridine

> <PUBCHEM_IUPAC_SYSTEMATIC_NAME>
5-[4-[2-[4-[2,3-bis(chloranyl)phenyl]piperazin-1-yl]ethyl]-1,2,3-triazol-1-yl]pyrazolo[1,5-a]pyridine

> <PUBCHEM_IUPAC_TRADITIONAL_NAME>
5-[4-[2-[4-(2,3-dichlorophenyl)piperazino]ethyl]triazol-1-yl]pyrazolo[1,5-a]pyridine

> <PUBCHEM_IUPAC_INCHI>
InChI=1S/C21H21Cl2N7/c22-19-2-1-3-20(21(19)23)28-12-10-27(11-13-28)8-5-16-15-30(26-25-16)18-6-9-29-17(14-18)4-7-24-29/h1-4,6-7,9,14-15H,5,8,10-13H2

> <PUBCHEM_IUPAC_INCHIKEY>
HMVJSLZLZZJKHU-UHFFFAOYSA-N

> <PUBCHEM_XLOGP3_AA>
3.7

> <PUBCHEM_EXACT_MASS>
441.1235491

> <PUBCHEM_MOLECULAR_FORMULA>
C21H21Cl2N7

> <PUBCHEM_MOLECULAR_WEIGHT>
442.3

> <PUBCHEM_OPENEYE_CAN_SMILES>
C1CN(CCN1CCC2=CN(N=N2)C3=CC4=CC=NN4C=C3)C5=C(C(=CC=C5)Cl)Cl

> <PUBCHEM_OPENEYE_ISO_SMILES>
C1CN(CCN1CCC2=CN(N=N2)C3=CC4=CC=NN4C=C3)C5=C(C(=CC=C5)Cl)Cl

> <PUBCHEM_CACTVS_TPSA>
54.5

> <PUBCHEM_MONOISOTOPIC_WEIGHT>
441.1235491

> <PUBCHEM_TOTAL_CHARGE>
0

> <PUBCHEM_HEAVY_ATOM_COUNT>
30

> <PUBCHEM_ATOM_DEF_STEREO_COUNT>
0

> <PUBCHEM_ATOM_UDEF_STEREO_COUNT>
0

> <PUBCHEM_BOND_DEF_STEREO_COUNT>
0

> <PUBCHEM_BOND_UDEF_STEREO_COUNT>
0

> <PUBCHEM_ISOTOPIC_ATOM_COUNT>
0

> <PUBCHEM_COMPONENT_COUNT>
1

> <PUBCHEM_CACTVS_TAUTO_COUNT>
-1

> <PUBCHEM_COORDINATE_TYPE>
1
5
255

> <PUBCHEM_BONDANNOTATIONS>
16  18  8
16  19  8
17  20  8
18  21  8
19  22  8
21  24  8
22  24  8
23  25  8
23  27  8
25  26  8
26  29  8
27  28  8
29  30  8
5  20  8
5  7  8
6  17  8
6  7  8
8  26  8
8  28  8
8  9  8
9  30  8

$$$$
