10732337
  -OEChem-09292322132D

 43 46  0     1  0  0  0  0  0999 V2000
    4.6497    1.7484    0.0000 O   0  0  0  0  0  0  0  0  0  0  0  0
    8.1223   -1.2831    0.0000 N   0  0  3  0  0  0  0  0  0  0  0  0
    7.2641   -0.7862    0.0000 C   0  0  1  0  0  0  0  0  0  0  0  0
    7.2641    0.2138    0.0000 C   0  0  0  0  0  0  0  0  0  0  0  0
    6.3981   -1.2862    0.0000 C   0  0  0  0  0  0  0  0  0  0  0  0
    8.1741    0.7207    0.0000 C   0  0  0  0  0  0  0  0  0  0  0  0
    8.9878   -0.7989    0.0000 C   0  0  0  0  0  0  0  0  0  0  0  0
    6.3981    0.7138    0.0000 C   0  0  0  0  0  0  0  0  0  0  0  0
    9.0134    0.1924    0.0000 C   0  0  0  0  0  0  0  0  0  0  0  0
    5.5320   -0.7862    0.0000 C   0  0  0  0  0  0  0  0  0  0  0  0
    5.5320    0.2138    0.0000 C   0  0  0  0  0  0  0  0  0  0  0  0
    8.1149   -2.2831    0.0000 C   0  0  0  0  0  0  0  0  0  0  0  0
    8.1821    1.7623    0.0000 C   0  0  0  0  0  0  0  0  0  0  0  0
    6.3820    1.7553    0.0000 C   0  0  0  0  0  0  0  0  0  0  0  0
    4.6381    0.7485    0.0000 C   0  0  0  0  0  0  0  0  0  0  0  0
    4.6381   -1.3208    0.0000 C   0  0  0  0  0  0  0  0  0  0  0  0
    7.2800    2.2831    0.0000 C   0  0  0  0  0  0  0  0  0  0  0  0
    3.7320    0.2346    0.0000 C   0  0  0  0  0  0  0  0  0  0  0  0
    3.7320   -0.8070    0.0000 C   0  0  0  0  0  0  0  0  0  0  0  0
    2.8680    0.7380    0.0000 C   0  0  0  0  0  0  0  0  0  0  0  0
    3.7895    2.2584    0.0000 C   0  0  0  0  0  0  0  0  0  0  0  0
    2.0000    0.2413    0.0000 C   0  0  0  0  0  0  0  0  0  0  0  0
    7.2636   -1.6362    0.0000 H   0  0  0  0  0  0  0  0  0  0  0  0
    5.9995   -1.7611    0.0000 H   0  0  0  0  0  0  0  0  0  0  0  0
    6.7966   -1.7611    0.0000 H   0  0  0  0  0  0  0  0  0  0  0  0
    9.1895   -1.3852    0.0000 H   0  0  0  0  0  0  0  0  0  0  0  0
    9.6006   -0.7046    0.0000 H   0  0  0  0  0  0  0  0  0  0  0  0
    9.6205    0.0665    0.0000 H   0  0  0  0  0  0  0  0  0  0  0  0
    9.2452    0.7675    0.0000 H   0  0  0  0  0  0  0  0  0  0  0  0
    7.4949   -2.2785    0.0000 H   0  0  0  0  0  0  0  0  0  0  0  0
    8.1103   -2.9031    0.0000 H   0  0  0  0  0  0  0  0  0  0  0  0
    8.7349   -2.2877    0.0000 H   0  0  0  0  0  0  0  0  0  0  0  0
    8.7203    2.0702    0.0000 H   0  0  0  0  0  0  0  0  0  0  0  0
    5.8415    2.0591    0.0000 H   0  0  0  0  0  0  0  0  0  0  0  0
    4.6453   -1.9408    0.0000 H   0  0  0  0  0  0  0  0  0  0  0  0
    7.2777    2.9031    0.0000 H   0  0  0  0  0  0  0  0  0  0  0  0
    3.1963   -1.1191    0.0000 H   0  0  0  0  0  0  0  0  0  0  0  0
    2.8703    1.3580    0.0000 H   0  0  0  0  0  0  0  0  0  0  0  0
    4.1057    2.7917    0.0000 H   0  0  0  0  0  0  0  0  0  0  0  0
    3.2562    2.5746    0.0000 H   0  0  0  0  0  0  0  0  0  0  0  0
    3.4733    1.7251    0.0000 H   0  0  0  0  0  0  0  0  0  0  0  0
    1.4643    0.5534    0.0000 H   0  0  0  0  0  0  0  0  0  0  0  0
    1.9976   -0.3787    0.0000 H   0  0  0  0  0  0  0  0  0  0  0  0
  1 15  1  0  0  0  0
  1 21  1  0  0  0  0
  2  3  1  0  0  0  0
  2  7  1  0  0  0  0
  2 12  1  0  0  0  0
  3  4  1  0  0  0  0
  3  5  1  0  0  0  0
  3 23  1  1  0  0  0
  4  6  2  0  0  0  0
  4  8  1  0  0  0  0
  5 10  1  0  0  0  0
  5 24  1  0  0  0  0
  5 25  1  0  0  0  0
  6  9  1  0  0  0  0
  6 13  1  0  0  0  0
  7  9  1  0  0  0  0
  7 26  1  0  0  0  0
  7 27  1  0  0  0  0
  8 11  1  0  0  0  0
  8 14  2  0  0  0  0
  9 28  1  0  0  0  0
  9 29  1  0  0  0  0
 10 11  2  0  0  0  0
 10 16  1  0  0  0  0
 11 15  1  0  0  0  0
 12 30  1  0  0  0  0
 12 31  1  0  0  0  0
 12 32  1  0  0  0  0
 13 17  2  0  0  0  0
 13 33  1  0  0  0  0
 14 17  1  0  0  0  0
 14 34  1  0  0  0  0
 15 18  2  0  0  0  0
 16 19  2  0  0  0  0
 16 35  1  0  0  0  0
 17 36  1  0  0  0  0
 18 19  1  0  0  0  0
 18 20  1  0  0  0  0
 19 37  1  0  0  0  0
 20 22  2  0  0  0  0
 20 38  1  0  0  0  0
 21 39  1  0  0  0  0
 21 40  1  0  0  0  0
 21 41  1  0  0  0  0
 22 42  1  0  0  0  0
 22 43  1  0  0  0  0
M  END
> <PUBCHEM_COMPOUND_CID>
10732337

> <PUBCHEM_COMPOUND_CANONICALIZED>
1

> <PUBCHEM_CACTVS_COMPLEXITY>
422

> <PUBCHEM_CACTVS_HBOND_ACCEPTOR>
2

> <PUBCHEM_CACTVS_HBOND_DONOR>
0

> <PUBCHEM_CACTVS_ROTATABLE_BOND>
2

> <PUBCHEM_CACTVS_SUBSKEYS>
AAADceB6IAAAAAAAAAAAAAAAAAAAAAAAAAA8YMEAAAAAAADxQAAAHgAAAAAADCzBmAYyBoMABACAAiBCAACCCAAgIAAIiAAMDIgMJiKEsRuEMChkwBGIqAeQ0PMOwAADAAAYAACQAAaAADQAAAAAAAAAAA==

> <PUBCHEM_IUPAC_OPENEYE_NAME>
(6aR)-11-methoxy-6-methyl-10-vinyl-5,6,6a,7-tetrahydro-4H-dibenzo[de,g]quinoline

> <PUBCHEM_IUPAC_CAS_NAME>
(6aR)-10-ethenyl-11-methoxy-6-methyl-5,6,6a,7-tetrahydro-4H-dibenzo[de,g]quinoline

> <PUBCHEM_IUPAC_NAME_MARKUP>
(6<I>a</I><I>R</I>)-10-ethenyl-11-methoxy-6-methyl-5,6,6<I>a</I>,7-tetrahydro-4<I>H</I>-dibenzo[de,g]quinoline

> <PUBCHEM_IUPAC_NAME>
(6aR)-10-ethenyl-11-methoxy-6-methyl-5,6,6a,7-tetrahydro-4H-dibenzo[de,g]quinoline

> <PUBCHEM_IUPAC_SYSTEMATIC_NAME>
(6aR)-10-ethenyl-11-methoxy-6-methyl-5,6,6a,7-tetrahydro-4H-dibenzo[de,g]quinoline

> <PUBCHEM_IUPAC_TRADITIONAL_NAME>
(6aR)-11-methoxy-6-methyl-10-vinyl-5,6,6a,7-tetrahydro-4H-dibenzo[de,g]quinoline

> <PUBCHEM_IUPAC_INCHI>
InChI=1S/C20H21NO/c1-4-13-8-9-15-12-17-18-14(10-11-21(17)2)6-5-7-16(18)19(15)20(13)22-3/h4-9,17H,1,10-12H2,2-3H3/t17-/m1/s1

> <PUBCHEM_IUPAC_INCHIKEY>
ZLNGLZZIHYJLNS-QGZVFWFLSA-N

> <PUBCHEM_XLOGP3>
3.8

> <PUBCHEM_EXACT_MASS>
291.162314293

> <PUBCHEM_MOLECULAR_FORMULA>
C20H21NO

> <PUBCHEM_MOLECULAR_WEIGHT>
291.4

> <PUBCHEM_OPENEYE_CAN_SMILES>
CN1CCC2=C3C1CC4=C(C3=CC=C2)C(=C(C=C4)C=C)OC

> <PUBCHEM_OPENEYE_ISO_SMILES>
CN1CCC2=C3[C@H]1CC4=C(C3=CC=C2)C(=C(C=C4)C=C)OC

> <PUBCHEM_CACTVS_TPSA>
12.5

> <PUBCHEM_MONOISOTOPIC_WEIGHT>
291.162314293

> <PUBCHEM_TOTAL_CHARGE>
0

> <PUBCHEM_HEAVY_ATOM_COUNT>
22

> <PUBCHEM_ATOM_DEF_STEREO_COUNT>
1

> <PUBCHEM_ATOM_UDEF_STEREO_COUNT>
0

> <PUBCHEM_BOND_DEF_STEREO_COUNT>
0

> <PUBCHEM_BOND_UDEF_STEREO_COUNT>
0

> <PUBCHEM_ISOTOPIC_ATOM_COUNT>
0

> <PUBCHEM_COMPONENT_COUNT>
1

> <PUBCHEM_CACTVS_TAUTO_COUNT>
-1

> <PUBCHEM_COORDINATE_TYPE>
1
5
255

> <PUBCHEM_BONDANNOTATIONS>
10  11  8
10  16  8
11  15  8
13  17  8
14  17  8
15  18  8
16  19  8
18  19  8
3  23  5
4  6  8
4  8  8
6  13  8
8  14  8

$$$$
