10200368
  -OEChem-09292322182D

 60 63  0     1  0  0  0  0  0999 V2000
   14.1904   -0.6192    0.0000 O   0  0  0  0  0  0  0  0  0  0  0  0
    8.9282   -0.5950    0.0000 N   0  0  3  0  0  0  0  0  0  0  0  0
    6.3301   -0.0950    0.0000 N   0  0  0  0  0  0  0  0  0  0  0  0
    4.5981    0.9050    0.0000 N   0  0  0  0  0  0  0  0  0  0  0  0
    9.7942   -0.0950    0.0000 C   0  0  3  0  0  0  0  0  0  0  0  0
    9.7942    0.9050    0.0000 C   0  0  0  0  0  0  0  0  0  0  0  0
   10.6603   -0.5950    0.0000 C   0  0  0  0  0  0  0  0  0  0  0  0
    8.0622   -0.0950    0.0000 C   0  0  0  0  0  0  0  0  0  0  0  0
   10.6603    1.4050    0.0000 C   0  0  0  0  0  0  0  0  0  0  0  0
    7.1962   -0.5950    0.0000 C   0  0  0  0  0  0  0  0  0  0  0  0
   11.5263   -0.0950    0.0000 C   0  0  0  0  0  0  0  0  0  0  0  0
   11.5263    0.9050    0.0000 C   0  0  0  0  0  0  0  0  0  0  0  0
    6.3301    0.9050    0.0000 C   0  0  0  0  0  0  0  0  0  0  0  0
    5.4641   -0.5950    0.0000 C   0  0  0  0  0  0  0  0  0  0  0  0
    5.4641    1.4050    0.0000 C   0  0  0  0  0  0  0  0  0  0  0  0
    4.5981   -0.0950    0.0000 C   0  0  0  0  0  0  0  0  0  0  0  0
    8.9282   -1.5950    0.0000 C   0  0  0  0  0  0  0  0  0  0  0  0
   12.4202   -0.6297    0.0000 C   0  0  0  0  0  0  0  0  0  0  0  0
   12.4202    1.4397    0.0000 C   0  0  0  0  0  0  0  0  0  0  0  0
    3.7320    1.4050    0.0000 C   0  0  0  0  0  0  0  0  0  0  0  0
   13.3263   -0.1158    0.0000 C   0  0  0  0  0  0  0  0  0  0  0  0
   13.3263    0.9258    0.0000 C   0  0  0  0  0  0  0  0  0  0  0  0
    8.0622   -2.0950    0.0000 C   0  0  0  0  0  0  0  0  0  0  0  0
    2.8660    0.9050    0.0000 C   0  0  0  0  0  0  0  0  0  0  0  0
    3.7320    2.4050    0.0000 C   0  0  0  0  0  0  0  0  0  0  0  0
    2.0000    1.4050    0.0000 C   0  0  0  0  0  0  0  0  0  0  0  0
    2.8660    2.9050    0.0000 C   0  0  0  0  0  0  0  0  0  0  0  0
    2.0000    2.4050    0.0000 C   0  0  0  0  0  0  0  0  0  0  0  0
    7.1962   -2.5950    0.0000 C   0  0  0  0  0  0  0  0  0  0  0  0
    9.2573    0.2150    0.0000 H   0  0  0  0  0  0  0  0  0  0  0  0
    9.5822    1.4876    0.0000 H   0  0  0  0  0  0  0  0  0  0  0  0
    9.1836    0.7973    0.0000 H   0  0  0  0  0  0  0  0  0  0  0  0
   10.2617   -1.0700    0.0000 H   0  0  0  0  0  0  0  0  0  0  0  0
   11.0588   -1.0700    0.0000 H   0  0  0  0  0  0  0  0  0  0  0  0
    8.4607    0.3799    0.0000 H   0  0  0  0  0  0  0  0  0  0  0  0
    7.6636    0.3799    0.0000 H   0  0  0  0  0  0  0  0  0  0  0  0
   11.0588    1.8800    0.0000 H   0  0  0  0  0  0  0  0  0  0  0  0
   10.2617    1.8800    0.0000 H   0  0  0  0  0  0  0  0  0  0  0  0
    6.7976   -1.0700    0.0000 H   0  0  0  0  0  0  0  0  0  0  0  0
    7.5947   -1.0700    0.0000 H   0  0  0  0  0  0  0  0  0  0  0  0
    6.9407    0.7973    0.0000 H   0  0  0  0  0  0  0  0  0  0  0  0
    6.5422    1.4876    0.0000 H   0  0  0  0  0  0  0  0  0  0  0  0
    5.0656   -1.0700    0.0000 H   0  0  0  0  0  0  0  0  0  0  0  0
    5.8626   -1.0700    0.0000 H   0  0  0  0  0  0  0  0  0  0  0  0
    5.8626    1.8800    0.0000 H   0  0  0  0  0  0  0  0  0  0  0  0
    5.0656    1.8800    0.0000 H   0  0  0  0  0  0  0  0  0  0  0  0
    3.9875    0.0127    0.0000 H   0  0  0  0  0  0  0  0  0  0  0  0
    4.3860   -0.6776    0.0000 H   0  0  0  0  0  0  0  0  0  0  0  0
    9.1403   -2.1776    0.0000 H   0  0  0  0  0  0  0  0  0  0  0  0
    9.5388   -1.4873    0.0000 H   0  0  0  0  0  0  0  0  0  0  0  0
   12.4131   -1.2496    0.0000 H   0  0  0  0  0  0  0  0  0  0  0  0
   12.4131    2.0596    0.0000 H   0  0  0  0  0  0  0  0  0  0  0  0
   13.8620    1.2379    0.0000 H   0  0  0  0  0  0  0  0  0  0  0  0
    2.8660    0.2850    0.0000 H   0  0  0  0  0  0  0  0  0  0  0  0
    4.2690    2.7150    0.0000 H   0  0  0  0  0  0  0  0  0  0  0  0
    1.4631    1.0950    0.0000 H   0  0  0  0  0  0  0  0  0  0  0  0
    2.8660    3.5250    0.0000 H   0  0  0  0  0  0  0  0  0  0  0  0
   14.7285   -0.3112    0.0000 H   0  0  0  0  0  0  0  0  0  0  0  0
    1.4631    2.7150    0.0000 H   0  0  0  0  0  0  0  0  0  0  0  0
    6.6592   -2.9050    0.0000 H   0  0  0  0  0  0  0  0  0  0  0  0
  1 21  1  0  0  0  0
  1 58  1  0  0  0  0
  2  5  1  0  0  0  0
  2  8  1  0  0  0  0
  2 17  1  0  0  0  0
  3 10  1  0  0  0  0
  3 13  1  0  0  0  0
  3 14  1  0  0  0  0
  4 15  1  0  0  0  0
  4 16  1  0  0  0  0
  4 20  1  0  0  0  0
  5  6  1  0  0  0  0
  5  7  1  0  0  0  0
  5 30  1  0  0  0  0
  6  9  1  0  0  0  0
  6 31  1  0  0  0  0
  6 32  1  0  0  0  0
  7 11  1  0  0  0  0
  7 33  1  0  0  0  0
  7 34  1  0  0  0  0
  8 10  1  0  0  0  0
  8 35  1  0  0  0  0
  8 36  1  0  0  0  0
  9 12  1  0  0  0  0
  9 37  1  0  0  0  0
  9 38  1  0  0  0  0
 10 39  1  0  0  0  0
 10 40  1  0  0  0  0
 11 12  2  0  0  0  0
 11 18  1  0  0  0  0
 12 19  1  0  0  0  0
 13 15  1  0  0  0  0
 13 41  1  0  0  0  0
 13 42  1  0  0  0  0
 14 16  1  0  0  0  0
 14 43  1  0  0  0  0
 14 44  1  0  0  0  0
 15 45  1  0  0  0  0
 15 46  1  0  0  0  0
 16 47  1  0  0  0  0
 16 48  1  0  0  0  0
 17 23  1  0  0  0  0
 17 49  1  0  0  0  0
 17 50  1  0  0  0  0
 18 21  2  0  0  0  0
 18 51  1  0  0  0  0
 19 22  2  0  0  0  0
 19 52  1  0  0  0  0
 20 24  2  0  0  0  0
 20 25  1  0  0  0  0
 21 22  1  0  0  0  0
 22 53  1  0  0  0  0
 23 29  3  0  0  0  0
 24 26  1  0  0  0  0
 24 54  1  0  0  0  0
 25 27  2  0  0  0  0
 25 55  1  0  0  0  0
 26 28  2  0  0  0  0
 26 56  1  0  0  0  0
 27 28  1  0  0  0  0
 27 57  1  0  0  0  0
 28 59  1  0  0  0  0
 29 60  1  0  0  0  0
M  END
> <PUBCHEM_COMPOUND_CID>
10200368

> <PUBCHEM_COMPOUND_CANONICALIZED>
1

> <PUBCHEM_CACTVS_COMPLEXITY>
544

> <PUBCHEM_CACTVS_HBOND_ACCEPTOR>
4

> <PUBCHEM_CACTVS_HBOND_DONOR>
1

> <PUBCHEM_CACTVS_ROTATABLE_BOND>
6

> <PUBCHEM_CACTVS_SUBSKEYS>
AAADceB7IAAAAAAAAAAAAAAAAAAAAAAAAAA8YMEAAAAAAADBQAAAHgAACAAADCzBmAQwxoMAAgDAGiRCQACCAAAhIgAIiAAObIgIZiLCkZOUcAhkwBHI2AeQ0LMOoAABAAAQAABQAAKAACAAAAAAAAAAAA==

> <PUBCHEM_IUPAC_OPENEYE_NAME>
3-[2-(4-phenylpiperazin-1-yl)ethyl-prop-2-ynyl-amino]tetralin-6-ol

> <PUBCHEM_IUPAC_CAS_NAME>
7-[2-(4-phenyl-1-piperazinyl)ethyl-prop-2-ynylamino]-5,6,7,8-tetrahydronaphthalen-2-ol

> <PUBCHEM_IUPAC_NAME_MARKUP>
7-[2-(4-phenylpiperazin-1-yl)ethyl-prop-2-ynylamino]-5,6,7,8-tetrahydronaphthalen-2-ol

> <PUBCHEM_IUPAC_NAME>
7-[2-(4-phenylpiperazin-1-yl)ethyl-prop-2-ynylamino]-5,6,7,8-tetrahydronaphthalen-2-ol

> <PUBCHEM_IUPAC_SYSTEMATIC_NAME>
7-[2-(4-phenylpiperazin-1-yl)ethyl-prop-2-ynyl-amino]-5,6,7,8-tetrahydronaphthalen-2-ol

> <PUBCHEM_IUPAC_TRADITIONAL_NAME>
3-[2-(4-phenylpiperazino)ethyl-propargyl-amino]tetralin-6-ol

> <PUBCHEM_IUPAC_INCHI>
InChI=1S/C25H31N3O/c1-2-12-27(24-10-8-21-9-11-25(29)20-22(21)19-24)16-13-26-14-17-28(18-15-26)23-6-4-3-5-7-23/h1,3-7,9,11,20,24,29H,8,10,12-19H2

> <PUBCHEM_IUPAC_INCHIKEY>
WMPBOLSQXBJOKQ-UHFFFAOYSA-N

> <PUBCHEM_XLOGP3_AA>
4.1

> <PUBCHEM_EXACT_MASS>
389.246712621

> <PUBCHEM_MOLECULAR_FORMULA>
C25H31N3O

> <PUBCHEM_MOLECULAR_WEIGHT>
389.5

> <PUBCHEM_OPENEYE_CAN_SMILES>
C#CCN(CCN1CCN(CC1)C2=CC=CC=C2)C3CCC4=C(C3)C=C(C=C4)O

> <PUBCHEM_OPENEYE_ISO_SMILES>
C#CCN(CCN1CCN(CC1)C2=CC=CC=C2)C3CCC4=C(C3)C=C(C=C4)O

> <PUBCHEM_CACTVS_TPSA>
30

> <PUBCHEM_MONOISOTOPIC_WEIGHT>
389.246712621

> <PUBCHEM_TOTAL_CHARGE>
0

> <PUBCHEM_HEAVY_ATOM_COUNT>
29

> <PUBCHEM_ATOM_DEF_STEREO_COUNT>
0

> <PUBCHEM_ATOM_UDEF_STEREO_COUNT>
1

> <PUBCHEM_BOND_DEF_STEREO_COUNT>
0

> <PUBCHEM_BOND_UDEF_STEREO_COUNT>
0

> <PUBCHEM_ISOTOPIC_ATOM_COUNT>
0

> <PUBCHEM_COMPONENT_COUNT>
1

> <PUBCHEM_CACTVS_TAUTO_COUNT>
-1

> <PUBCHEM_COORDINATE_TYPE>
1
5
255

> <PUBCHEM_BONDANNOTATIONS>
11  12  8
11  18  8
12  19  8
18  21  8
19  22  8
5  2  3
20  24  8
20  25  8
21  22  8
24  26  8
25  27  8
26  28  8
27  28  8

$$$$
