145985527
  -OEChem-09292322392D

 65 70  0     1  0  0  0  0  0999 V2000
   11.2379    3.3627    0.0000 Cl  0  0  0  0  0  0  0  0  0  0  0  0
    3.0000   -0.3280    0.0000 S   0  0  0  0  0  0  0  0  0  0  0  0
    2.0000   -0.3280    0.0000 O   0  0  0  0  0  0  0  0  0  0  0  0
    4.0000   -0.3280    0.0000 O   0  0  0  0  0  0  0  0  0  0  0  0
    3.0000    0.6720    0.0000 N   0  0  3  0  0  0  0  0  0  0  0  0
    6.4543    1.3109    0.0000 N   0  0  3  0  0  0  0  0  0  0  0  0
   10.6079   -0.5644    0.0000 N   0  0  0  0  0  0  0  0  0  0  0  0
    4.7600   -3.3627    0.0000 N   0  0  0  0  0  0  0  0  0  0  0  0
    3.8090    1.2598    0.0000 C   0  0  2  0  0  0  0  0  0  0  0  0
    3.5000    2.2108    0.0000 C   0  0  0  0  0  0  0  0  0  0  0  0
    2.5000    2.2108    0.0000 C   0  0  0  0  0  0  0  0  0  0  0  0
    4.7601    0.9508    0.0000 C   0  0  0  0  0  0  0  0  0  0  0  0
    2.1910    1.2598    0.0000 C   0  0  0  0  0  0  0  0  0  0  0  0
    5.5032    1.6199    0.0000 C   0  0  0  0  0  0  0  0  0  0  0  0
    7.1974    1.9800    0.0000 C   0  0  0  0  0  0  0  0  0  0  0  0
    6.6622    0.3327    0.0000 C   0  0  0  0  0  0  0  0  0  0  0  0
    3.0000   -1.3280    0.0000 C   0  0  0  0  0  0  0  0  0  0  0  0
    8.1485    1.6710    0.0000 C   0  0  0  0  0  0  0  0  0  0  0  0
    8.3564    0.6928    0.0000 C   0  0  0  0  0  0  0  0  0  0  0  0
    7.6132    0.0237    0.0000 C   0  0  0  0  0  0  0  0  0  0  0  0
    3.8660   -1.8280    0.0000 C   0  0  0  0  0  0  0  0  0  0  0  0
    9.3074    0.3838    0.0000 C   0  0  0  0  0  0  0  0  0  0  0  0
    2.1340   -1.8280    0.0000 C   0  0  0  0  0  0  0  0  0  0  0  0
    3.8660   -2.8280    0.0000 C   0  0  0  0  0  0  0  0  0  0  0  0
   10.1112    0.9688    0.0000 C   0  0  0  0  0  0  0  0  0  0  0  0
    2.1340   -2.8280    0.0000 C   0  0  0  0  0  0  0  0  0  0  0  0
    9.6138   -0.5619    0.0000 C   0  0  0  0  0  0  0  0  0  0  0  0
    4.7600   -1.2933    0.0000 C   0  0  0  0  0  0  0  0  0  0  0  0
   10.9192    0.3796    0.0000 C   0  0  0  0  0  0  0  0  0  0  0  0
    3.0000   -3.3280    0.0000 C   0  0  0  0  0  0  0  0  0  0  0  0
   10.2174    1.9632    0.0000 C   0  0  0  0  0  0  0  0  0  0  0  0
    5.6660   -1.8072    0.0000 C   0  0  0  0  0  0  0  0  0  0  0  0
   11.8334    0.7848    0.0000 C   0  0  0  0  0  0  0  0  0  0  0  0
    5.6660   -2.8488    0.0000 C   0  0  0  0  0  0  0  0  0  0  0  0
   11.1317    2.3683    0.0000 C   0  0  0  0  0  0  0  0  0  0  0  0
   11.9397    1.7791    0.0000 C   0  0  0  0  0  0  0  0  0  0  0  0
    3.9060    0.6474    0.0000 H   0  0  0  0  0  0  0  0  0  0  0  0
    4.1064    2.3397    0.0000 H   0  0  0  0  0  0  0  0  0  0  0  0
    3.4352    2.8274    0.0000 H   0  0  0  0  0  0  0  0  0  0  0  0
    2.5648    2.8274    0.0000 H   0  0  0  0  0  0  0  0  0  0  0  0
    1.8936    2.3397    0.0000 H   0  0  0  0  0  0  0  0  0  0  0  0
    4.4690    0.4033    0.0000 H   0  0  0  0  0  0  0  0  0  0  0  0
    5.2486    0.5691    0.0000 H   0  0  0  0  0  0  0  0  0  0  0  0
    1.6246    1.5120    0.0000 H   0  0  0  0  0  0  0  0  0  0  0  0
    1.8810    0.7228    0.0000 H   0  0  0  0  0  0  0  0  0  0  0  0
    5.7943    2.1673    0.0000 H   0  0  0  0  0  0  0  0  0  0  0  0
    5.0146    2.0016    0.0000 H   0  0  0  0  0  0  0  0  0  0  0  0
    7.4885    2.5274    0.0000 H   0  0  0  0  0  0  0  0  0  0  0  0
    6.7088    2.3617    0.0000 H   0  0  0  0  0  0  0  0  0  0  0  0
    6.0426    0.3111    0.0000 H   0  0  0  0  0  0  0  0  0  0  0  0
    6.5759   -0.2812    0.0000 H   0  0  0  0  0  0  0  0  0  0  0  0
    8.7681    1.6926    0.0000 H   0  0  0  0  0  0  0  0  0  0  0  0
    8.2348    2.2850    0.0000 H   0  0  0  0  0  0  0  0  0  0  0  0
    7.7422   -0.5827    0.0000 H   0  0  0  0  0  0  0  0  0  0  0  0
    1.5970   -1.5180    0.0000 H   0  0  0  0  0  0  0  0  0  0  0  0
    1.5970   -3.1380    0.0000 H   0  0  0  0  0  0  0  0  0  0  0  0
    9.2485   -1.0628    0.0000 H   0  0  0  0  0  0  0  0  0  0  0  0
    4.7528   -0.6734    0.0000 H   0  0  0  0  0  0  0  0  0  0  0  0
    3.0000   -3.9480    0.0000 H   0  0  0  0  0  0  0  0  0  0  0  0
   10.9706   -1.0673    0.0000 H   0  0  0  0  0  0  0  0  0  0  0  0
    9.7165    2.3285    0.0000 H   0  0  0  0  0  0  0  0  0  0  0  0
    6.2018   -1.4951    0.0000 H   0  0  0  0  0  0  0  0  0  0  0  0
   12.3344    0.4195    0.0000 H   0  0  0  0  0  0  0  0  0  0  0  0
    6.2018   -3.1609    0.0000 H   0  0  0  0  0  0  0  0  0  0  0  0
   12.5065    2.0303    0.0000 H   0  0  0  0  0  0  0  0  0  0  0  0
  1 35  1  0  0  0  0
  2  3  2  0  0  0  0
  2  4  2  0  0  0  0
  2  5  1  0  0  0  0
  2 17  1  0  0  0  0
  5  9  1  0  0  0  0
  5 13  1  0  0  0  0
  6 14  1  0  0  0  0
  6 15  1  0  0  0  0
  6 16  1  0  0  0  0
  7 27  1  0  0  0  0
  7 29  1  0  0  0  0
  7 60  1  0  0  0  0
  8 24  1  0  0  0  0
  8 34  2  0  0  0  0
  9 10  1  0  0  0  0
  9 12  1  6  0  0  0
  9 37  1  0  0  0  0
 10 11  1  0  0  0  0
 10 38  1  0  0  0  0
 10 39  1  0  0  0  0
 11 13  1  0  0  0  0
 11 40  1  0  0  0  0
 11 41  1  0  0  0  0
 12 14  1  0  0  0  0
 12 42  1  0  0  0  0
 12 43  1  0  0  0  0
 13 44  1  0  0  0  0
 13 45  1  0  0  0  0
 14 46  1  0  0  0  0
 14 47  1  0  0  0  0
 15 18  1  0  0  0  0
 15 48  1  0  0  0  0
 15 49  1  0  0  0  0
 16 20  1  0  0  0  0
 16 50  1  0  0  0  0
 16 51  1  0  0  0  0
 17 21  1  0  0  0  0
 17 23  2  0  0  0  0
 18 19  1  0  0  0  0
 18 52  1  0  0  0  0
 18 53  1  0  0  0  0
 19 20  2  0  0  0  0
 19 22  1  0  0  0  0
 20 54  1  0  0  0  0
 21 24  2  0  0  0  0
 21 28  1  0  0  0  0
 22 25  1  0  0  0  0
 22 27  2  0  0  0  0
 23 26  1  0  0  0  0
 23 55  1  0  0  0  0
 24 30  1  0  0  0  0
 25 29  2  0  0  0  0
 25 31  1  0  0  0  0
 26 30  2  0  0  0  0
 26 56  1  0  0  0  0
 27 57  1  0  0  0  0
 28 32  2  0  0  0  0
 28 58  1  0  0  0  0
 29 33  1  0  0  0  0
 30 59  1  0  0  0  0
 31 35  2  0  0  0  0
 31 61  1  0  0  0  0
 32 34  1  0  0  0  0
 32 62  1  0  0  0  0
 33 36  2  0  0  0  0
 33 63  1  0  0  0  0
 34 64  1  0  0  0  0
 35 36  1  0  0  0  0
 36 65  1  0  0  0  0
M  END
> <PUBCHEM_COMPOUND_CID>
145985527

> <PUBCHEM_COMPOUND_CANONICALIZED>
1

> <PUBCHEM_CACTVS_COMPLEXITY>
908

> <PUBCHEM_CACTVS_HBOND_ACCEPTOR>
5

> <PUBCHEM_CACTVS_HBOND_DONOR>
1

> <PUBCHEM_CACTVS_ROTATABLE_BOND>
6

> <PUBCHEM_CACTVS_SUBSKEYS>
AAADceB7sABEAAAAAAAAAAAAAAAAAWLAAAA8YIEAAAAAAFix/gAAHAYQQAAADCrBXiQ8wfPJkAKgAzRnRHDCgDAxByAI2bg4ZpgIIOLB05GEIAxgkADIyAcQgMAOgABAICAGAAAAAIBAQAwAAAAAAAAAAA==

> <PUBCHEM_IUPAC_OPENEYE_NAME>
5-[(2R)-2-[2-[4-(5-chloro-1H-indol-3-yl)-3,6-dihydro-2H-pyridin-1-yl]ethyl]pyrrolidin-1-yl]sulfonylquinoline

> <PUBCHEM_IUPAC_CAS_NAME>
5-[[(2R)-2-[2-[4-(5-chloro-1H-indol-3-yl)-3,6-dihydro-2H-pyridin-1-yl]ethyl]-1-pyrrolidinyl]sulfonyl]quinoline

> <PUBCHEM_IUPAC_NAME_MARKUP>
5-[(2<I>R</I>)-2-[2-[4-(5-chloro-1<I>H</I>-indol-3-yl)-3,6-dihydro-2<I>H</I>-pyridin-1-yl]ethyl]pyrrolidin-1-yl]sulfonylquinoline

> <PUBCHEM_IUPAC_NAME>
5-[(2R)-2-[2-[4-(5-chloro-1H-indol-3-yl)-3,6-dihydro-2H-pyridin-1-yl]ethyl]pyrrolidin-1-yl]sulfonylquinoline

> <PUBCHEM_IUPAC_SYSTEMATIC_NAME>
5-[(2R)-2-[2-[4-(5-chloranyl-1H-indol-3-yl)-3,6-dihydro-2H-pyridin-1-yl]ethyl]pyrrolidin-1-yl]sulfonylquinoline

> <PUBCHEM_IUPAC_TRADITIONAL_NAME>
5-[(2R)-2-[2-[4-(5-chloro-1H-indol-3-yl)-3,6-dihydro-2H-pyridin-1-yl]ethyl]pyrrolidino]sulfonylquinoline

> <PUBCHEM_IUPAC_INCHI>
InChI=1S/C28H29ClN4O2S/c29-21-8-9-27-24(18-21)25(19-31-27)20-10-15-32(16-11-20)17-12-22-4-3-14-33(22)36(34,35)28-7-1-6-26-23(28)5-2-13-30-26/h1-2,5-10,13,18-19,22,31H,3-4,11-12,14-17H2/t22-/m1/s1

> <PUBCHEM_IUPAC_INCHIKEY>
STSNDGBQWCJPOF-JOCHJYFZSA-N

> <PUBCHEM_XLOGP3_AA>
4.9

> <PUBCHEM_EXACT_MASS>
520.1699750

> <PUBCHEM_MOLECULAR_FORMULA>
C28H29ClN4O2S

> <PUBCHEM_MOLECULAR_WEIGHT>
521.1

> <PUBCHEM_OPENEYE_CAN_SMILES>
C1CC(N(C1)S(=O)(=O)C2=CC=CC3=C2C=CC=N3)CCN4CCC(=CC4)C5=CNC6=C5C=C(C=C6)Cl

> <PUBCHEM_OPENEYE_ISO_SMILES>
C1C[C@@H](N(C1)S(=O)(=O)C2=CC=CC3=C2C=CC=N3)CCN4CCC(=CC4)C5=CNC6=C5C=C(C=C6)Cl

> <PUBCHEM_CACTVS_TPSA>
77.7

> <PUBCHEM_MONOISOTOPIC_WEIGHT>
520.1699750

> <PUBCHEM_TOTAL_CHARGE>
0

> <PUBCHEM_HEAVY_ATOM_COUNT>
36

> <PUBCHEM_ATOM_DEF_STEREO_COUNT>
1

> <PUBCHEM_ATOM_UDEF_STEREO_COUNT>
0

> <PUBCHEM_BOND_DEF_STEREO_COUNT>
0

> <PUBCHEM_BOND_UDEF_STEREO_COUNT>
0

> <PUBCHEM_ISOTOPIC_ATOM_COUNT>
0

> <PUBCHEM_COMPONENT_COUNT>
1

> <PUBCHEM_CACTVS_TAUTO_COUNT>
-1

> <PUBCHEM_COORDINATE_TYPE>
1
5
255

> <PUBCHEM_BONDANNOTATIONS>
17  21  8
17  23  8
21  24  8
21  28  8
22  25  8
22  27  8
23  26  8
24  30  8
25  29  8
25  31  8
26  30  8
28  32  8
29  33  8
31  35  8
32  34  8
33  36  8
35  36  8
7  27  8
7  29  8
8  24  8
8  34  8
9  12  6

$$$$
