11662194
  -OEChem-09292322492D

 62 66  0     1  0  0  0  0  0999 V2000
    8.2062    1.7644    0.0000 S   0  0  0  0  0  0  0  0  0  0  0  0
   12.6493    4.9333    0.0000 O   0  0  0  0  0  0  0  0  0  0  0  0
    3.4887   -4.5520    0.0000 O   0  0  0  0  0  0  0  0  0  0  0  0
    5.2062    0.0323    0.0000 N   0  0  3  0  0  0  0  0  0  0  0  0
    9.7008    2.7349    0.0000 N   0  0  0  0  0  0  0  0  0  0  0  0
    9.0426    4.2131    0.0000 N   0  0  0  0  0  0  0  0  0  0  0  0
    8.2995    3.5439    0.0000 N   0  0  0  0  0  0  0  0  0  0  0  0
    2.0949   -3.7472    0.0000 N   0  0  0  0  0  0  0  0  0  0  0  0
   10.8222    4.1198    0.0000 C   0  0  0  0  0  0  0  0  0  0  0  0
    5.7598   -0.7773    0.0000 C   0  0  0  0  0  0  0  0  0  0  0  0
    4.2283    0.1069    0.0000 C   0  0  0  0  0  0  0  0  0  0  0  0
   11.6312    3.5320    0.0000 C   0  0  0  0  0  0  0  0  0  0  0  0
   10.9267    5.1143    0.0000 C   0  0  0  0  0  0  0  0  0  0  0  0
    5.4745   -1.7157    0.0000 C   0  0  0  0  0  0  0  0  0  0  0  0
    3.5583   -0.6094    0.0000 C   0  0  0  0  0  0  0  0  0  0  0  0
    5.7062    0.8983    0.0000 C   0  0  0  0  0  0  0  0  0  0  0  0
    4.5640   -2.0802    0.0000 C   0  0  0  0  0  0  0  0  0  0  0  0
    3.6979   -1.5802    0.0000 C   0  0  0  0  0  0  0  0  0  0  0  0
    9.9087    3.7131    0.0000 C   0  0  0  0  0  0  0  0  0  0  0  0
   12.5448    3.9388    0.0000 C   0  0  0  0  0  0  0  0  0  0  0  0
   11.8403    5.5210    0.0000 C   0  0  0  0  0  0  0  0  0  0  0  0
    6.7062    0.8983    0.0000 C   0  0  0  0  0  0  0  0  0  0  0  0
    4.5640   -3.0802    0.0000 C   0  0  0  0  0  0  0  0  0  0  0  0
    2.8319   -2.0802    0.0000 C   0  0  0  0  0  0  0  0  0  0  0  0
    7.2062    1.7644    0.0000 C   0  0  0  0  0  0  0  0  0  0  0  0
    3.6979   -3.5802    0.0000 C   0  0  0  0  0  0  0  0  0  0  0  0
    2.8319   -3.0802    0.0000 C   0  0  0  0  0  0  0  0  0  0  0  0
    8.7062    2.6304    0.0000 C   0  0  0  0  0  0  0  0  0  0  0  0
   10.3699    1.9918    0.0000 C   0  0  0  0  0  0  0  0  0  0  0  0
    2.5000   -4.6550    0.0000 C   0  0  0  0  0  0  0  0  0  0  0  0
    2.0000   -5.5210    0.0000 C   0  0  0  0  0  0  0  0  0  0  0  0
   10.7574    3.5032    0.0000 H   0  0  0  0  0  0  0  0  0  0  0  0
    6.2977   -1.0856    0.0000 H   0  0  0  0  0  0  0  0  0  0  0  0
    6.1805   -0.3219    0.0000 H   0  0  0  0  0  0  0  0  0  0  0  0
    4.4124    0.6990    0.0000 H   0  0  0  0  0  0  0  0  0  0  0  0
    3.6923    0.4186    0.0000 H   0  0  0  0  0  0  0  0  0  0  0  0
   11.1852    3.1013    0.0000 H   0  0  0  0  0  0  0  0  0  0  0  0
   11.9779    3.0180    0.0000 H   0  0  0  0  0  0  0  0  0  0  0  0
   10.7767    5.7159    0.0000 H   0  0  0  0  0  0  0  0  0  0  0  0
   10.3083    5.0711    0.0000 H   0  0  0  0  0  0  0  0  0  0  0  0
    5.5705   -2.3282    0.0000 H   0  0  0  0  0  0  0  0  0  0  0  0
    6.0930   -1.7590    0.0000 H   0  0  0  0  0  0  0  0  0  0  0  0
    3.2116   -0.0954    0.0000 H   0  0  0  0  0  0  0  0  0  0  0  0
    2.9798   -0.8325    0.0000 H   0  0  0  0  0  0  0  0  0  0  0  0
    5.8139    1.5089    0.0000 H   0  0  0  0  0  0  0  0  0  0  0  0
    5.1236    1.1104    0.0000 H   0  0  0  0  0  0  0  0  0  0  0  0
   12.6948    3.3372    0.0000 H   0  0  0  0  0  0  0  0  0  0  0  0
   13.1633    3.9820    0.0000 H   0  0  0  0  0  0  0  0  0  0  0  0
   12.2863    5.9517    0.0000 H   0  0  0  0  0  0  0  0  0  0  0  0
   11.4936    6.0351    0.0000 H   0  0  0  0  0  0  0  0  0  0  0  0
    6.5986    0.2878    0.0000 H   0  0  0  0  0  0  0  0  0  0  0  0
    7.2888    0.6863    0.0000 H   0  0  0  0  0  0  0  0  0  0  0  0
    5.1009   -3.3902    0.0000 H   0  0  0  0  0  0  0  0  0  0  0  0
    2.2950   -1.7702    0.0000 H   0  0  0  0  0  0  0  0  0  0  0  0
    7.3139    2.3749    0.0000 H   0  0  0  0  0  0  0  0  0  0  0  0
    6.6236    1.9764    0.0000 H   0  0  0  0  0  0  0  0  0  0  0  0
    9.9091    1.5769    0.0000 H   0  0  0  0  0  0  0  0  0  0  0  0
   10.7847    1.5310    0.0000 H   0  0  0  0  0  0  0  0  0  0  0  0
   10.8306    2.4066    0.0000 H   0  0  0  0  0  0  0  0  0  0  0  0
    1.4631   -5.2110    0.0000 H   0  0  0  0  0  0  0  0  0  0  0  0
    1.6900   -6.0580    0.0000 H   0  0  0  0  0  0  0  0  0  0  0  0
    2.5369   -5.8310    0.0000 H   0  0  0  0  0  0  0  0  0  0  0  0
  1 25  1  0  0  0  0
  1 28  1  0  0  0  0
  2 20  1  0  0  0  0
  2 21  1  0  0  0  0
  3 26  1  0  0  0  0
  3 30  1  0  0  0  0
  4 10  1  0  0  0  0
  4 11  1  0  0  0  0
  4 16  1  0  0  0  0
  5 19  1  0  0  0  0
  5 28  1  0  0  0  0
  5 29  1  0  0  0  0
  6  7  1  0  0  0  0
  6 19  2  0  0  0  0
  7 28  2  0  0  0  0
  8 27  1  0  0  0  0
  8 30  2  0  0  0  0
  9 12  1  0  0  0  0
  9 13  1  0  0  0  0
  9 19  1  0  0  0  0
  9 32  1  0  0  0  0
 10 14  1  0  0  0  0
 10 33  1  0  0  0  0
 10 34  1  0  0  0  0
 11 15  1  0  0  0  0
 11 35  1  0  0  0  0
 11 36  1  0  0  0  0
 12 20  1  0  0  0  0
 12 37  1  0  0  0  0
 12 38  1  0  0  0  0
 13 21  1  0  0  0  0
 13 39  1  0  0  0  0
 13 40  1  0  0  0  0
 14 17  1  0  0  0  0
 14 41  1  0  0  0  0
 14 42  1  0  0  0  0
 15 18  1  0  0  0  0
 15 43  1  0  0  0  0
 15 44  1  0  0  0  0
 16 22  1  0  0  0  0
 16 45  1  0  0  0  0
 16 46  1  0  0  0  0
 17 18  1  0  0  0  0
 17 23  2  0  0  0  0
 18 24  2  0  0  0  0
 20 47  1  0  0  0  0
 20 48  1  0  0  0  0
 21 49  1  0  0  0  0
 21 50  1  0  0  0  0
 22 25  1  0  0  0  0
 22 51  1  0  0  0  0
 22 52  1  0  0  0  0
 23 26  1  0  0  0  0
 23 53  1  0  0  0  0
 24 27  1  0  0  0  0
 24 54  1  0  0  0  0
 25 55  1  0  0  0  0
 25 56  1  0  0  0  0
 26 27  2  0  0  0  0
 29 57  1  0  0  0  0
 29 58  1  0  0  0  0
 29 59  1  0  0  0  0
 30 31  1  0  0  0  0
 31 60  1  0  0  0  0
 31 61  1  0  0  0  0
 31 62  1  0  0  0  0
M  END
> <PUBCHEM_COMPOUND_CID>
11662194

> <PUBCHEM_COMPOUND_CANONICALIZED>
1

> <PUBCHEM_CACTVS_COMPLEXITY>
580

> <PUBCHEM_CACTVS_HBOND_ACCEPTOR>
7

> <PUBCHEM_CACTVS_HBOND_DONOR>
0

> <PUBCHEM_CACTVS_ROTATABLE_BOND>
6

> <PUBCHEM_CACTVS_SUBSKEYS>
AAADceB7sABAAAAAAAAAAAAAAAAAAWLAAAA0QAAABYAAAFgB/AAAHgQIAAAADQzl3waz1rcMFEiqA6dydASS2CtvYrAV2CG/bNiOLrLkvbuPOSjkzBPY6Ye42bKOqAABQAAQEABQAAKAACAgAAAAAAAAAA==

> <PUBCHEM_IUPAC_OPENEYE_NAME>
2-methyl-7-[3-[(4-methyl-5-tetrahydropyran-4-yl-1,2,4-triazol-3-yl)sulfanyl]propyl]-5,6,8,9-tetrahydrooxazolo[4,5-h][3]benzazepine

> <PUBCHEM_IUPAC_CAS_NAME>
2-methyl-7-[3-[[4-methyl-5-(4-oxanyl)-1,2,4-triazol-3-yl]thio]propyl]-5,6,8,9-tetrahydrooxazolo[4,5-h][3]benzazepine

> <PUBCHEM_IUPAC_NAME_MARKUP>
2-methyl-7-[3-[[4-methyl-5-(oxan-4-yl)-1,2,4-triazol-3-yl]sulfanyl]propyl]-5,6,8,9-tetrahydro-[1,3]oxazolo[4,5-h][3]benzazepine

> <PUBCHEM_IUPAC_NAME>
2-methyl-7-[3-[[4-methyl-5-(oxan-4-yl)-1,2,4-triazol-3-yl]sulfanyl]propyl]-5,6,8,9-tetrahydro-[1,3]oxazolo[4,5-h][3]benzazepine

> <PUBCHEM_IUPAC_SYSTEMATIC_NAME>
2-methyl-7-[3-[[4-methyl-5-(oxan-4-yl)-1,2,4-triazol-3-yl]sulfanyl]propyl]-5,6,8,9-tetrahydro-[1,3]oxazolo[4,5-h][3]benzazepine

> <PUBCHEM_IUPAC_TRADITIONAL_NAME>
2-methyl-7-[3-[(4-methyl-5-tetrahydropyran-4-yl-1,2,4-triazol-3-yl)thio]propyl]-5,6,8,9-tetrahydrooxazolo[4,5-h][3]benzazepine

> <PUBCHEM_IUPAC_INCHI>
InChI=1S/C23H31N5O2S/c1-16-24-20-14-18-4-9-28(10-5-19(18)15-21(20)30-16)8-3-13-31-23-26-25-22(27(23)2)17-6-11-29-12-7-17/h14-15,17H,3-13H2,1-2H3

> <PUBCHEM_IUPAC_INCHIKEY>
RBZIHZIBFQXVQY-UHFFFAOYSA-N

> <PUBCHEM_XLOGP3_AA>
3.3

> <PUBCHEM_EXACT_MASS>
441.21984642

> <PUBCHEM_MOLECULAR_FORMULA>
C23H31N5O2S

> <PUBCHEM_MOLECULAR_WEIGHT>
441.6

> <PUBCHEM_OPENEYE_CAN_SMILES>
CC1=NC2=C(O1)C=C3CCN(CCC3=C2)CCCSC4=NN=C(N4C)C5CCOCC5

> <PUBCHEM_OPENEYE_ISO_SMILES>
CC1=NC2=C(O1)C=C3CCN(CCC3=C2)CCCSC4=NN=C(N4C)C5CCOCC5

> <PUBCHEM_CACTVS_TPSA>
94.5

> <PUBCHEM_MONOISOTOPIC_WEIGHT>
441.21984642

> <PUBCHEM_TOTAL_CHARGE>
0

> <PUBCHEM_HEAVY_ATOM_COUNT>
31

> <PUBCHEM_ATOM_DEF_STEREO_COUNT>
0

> <PUBCHEM_ATOM_UDEF_STEREO_COUNT>
0

> <PUBCHEM_BOND_DEF_STEREO_COUNT>
0

> <PUBCHEM_BOND_UDEF_STEREO_COUNT>
0

> <PUBCHEM_ISOTOPIC_ATOM_COUNT>
0

> <PUBCHEM_COMPONENT_COUNT>
1

> <PUBCHEM_CACTVS_TAUTO_COUNT>
-1

> <PUBCHEM_COORDINATE_TYPE>
1
5
255

> <PUBCHEM_BONDANNOTATIONS>
17  18  8
17  23  8
18  24  8
23  26  8
24  27  8
26  27  8
3  26  8
3  30  8
5  19  8
5  28  8
6  19  8
6  7  8
7  28  8
8  27  8
8  30  8

$$$$
