11568543
  -OEChem-09292322482D

 62 66  0     0  0  0  0  0  0999 V2000
    4.6783   -1.3538    0.0000 O   0  0  0  0  0  0  0  0  0  0  0  0
    6.7619   -1.4151    0.0000 O   0  0  0  0  0  0  0  0  0  0  0  0
    2.8660   -2.5490    0.0000 O   0  0  0  0  0  0  0  0  0  0  0  0
   10.7619    2.0490    0.0000 N   0  0  0  0  0  0  0  0  0  0  0  0
   12.7619    2.0490    0.0000 N   0  0  0  0  0  0  0  0  0  0  0  0
   14.3455    1.2443    0.0000 N   0  0  0  0  0  0  0  0  0  0  0  0
   14.3455    2.8538    0.0000 N   0  0  0  0  0  0  0  0  0  0  0  0
    6.7619    0.3170    0.0000 N   0  0  0  0  0  0  0  0  0  0  0  0
   11.2619    1.1830    0.0000 C   0  0  0  0  0  0  0  0  0  0  0  0
   11.2619    2.9151    0.0000 C   0  0  0  0  0  0  0  0  0  0  0  0
   12.2619    1.1830    0.0000 C   0  0  0  0  0  0  0  0  0  0  0  0
   12.2619    2.9151    0.0000 C   0  0  0  0  0  0  0  0  0  0  0  0
    9.7619    2.0490    0.0000 C   0  0  0  0  0  0  0  0  0  0  0  0
    9.2619    1.1830    0.0000 C   0  0  0  0  0  0  0  0  0  0  0  0
   13.7619    2.0490    0.0000 C   0  0  0  0  0  0  0  0  0  0  0  0
    8.2619    1.1830    0.0000 C   0  0  0  0  0  0  0  0  0  0  0  0
    7.7619    0.3170    0.0000 C   0  0  0  0  0  0  0  0  0  0  0  0
   15.2917    1.5490    0.0000 C   0  0  0  0  0  0  0  0  0  0  0  0
   15.2917    2.5490    0.0000 C   0  0  0  0  0  0  0  0  0  0  0  0
   16.1577    1.0490    0.0000 C   0  0  0  0  0  0  0  0  0  0  0  0
   16.1577    3.0490    0.0000 C   0  0  0  0  0  0  0  0  0  0  0  0
    6.2619   -0.5490    0.0000 C   0  0  0  0  0  0  0  0  0  0  0  0
   17.0238    1.5490    0.0000 C   0  0  0  0  0  0  0  0  0  0  0  0
   17.0238    2.5490    0.0000 C   0  0  0  0  0  0  0  0  0  0  0  0
    5.2619   -0.5490    0.0000 C   0  0  0  0  0  0  0  0  0  0  0  0
    3.7320   -0.0490    0.0000 C   0  0  0  0  0  0  0  0  0  0  0  0
    4.6783    0.2557    0.0000 C   0  0  0  0  0  0  0  0  0  0  0  0
    3.7320   -1.0490    0.0000 C   0  0  0  0  0  0  0  0  0  0  0  0
    2.8660   -1.5490    0.0000 C   0  0  0  0  0  0  0  0  0  0  0  0
    2.8660    0.4510    0.0000 C   0  0  0  0  0  0  0  0  0  0  0  0
    2.0000   -1.0490    0.0000 C   0  0  0  0  0  0  0  0  0  0  0  0
    2.0000   -0.0490    0.0000 C   0  0  0  0  0  0  0  0  0  0  0  0
    2.0000   -3.0490    0.0000 C   0  0  0  0  0  0  0  0  0  0  0  0
   10.6793    0.9710    0.0000 H   0  0  0  0  0  0  0  0  0  0  0  0
   11.3695    0.5724    0.0000 H   0  0  0  0  0  0  0  0  0  0  0  0
   11.3695    3.5256    0.0000 H   0  0  0  0  0  0  0  0  0  0  0  0
   10.6793    3.1271    0.0000 H   0  0  0  0  0  0  0  0  0  0  0  0
   12.1542    0.5724    0.0000 H   0  0  0  0  0  0  0  0  0  0  0  0
   12.8445    0.9710    0.0000 H   0  0  0  0  0  0  0  0  0  0  0  0
   12.8445    3.1271    0.0000 H   0  0  0  0  0  0  0  0  0  0  0  0
   12.1542    3.5256    0.0000 H   0  0  0  0  0  0  0  0  0  0  0  0
    9.8695    2.6596    0.0000 H   0  0  0  0  0  0  0  0  0  0  0  0
    9.1793    2.2611    0.0000 H   0  0  0  0  0  0  0  0  0  0  0  0
    9.1542    0.5724    0.0000 H   0  0  0  0  0  0  0  0  0  0  0  0
    9.8445    0.9710    0.0000 H   0  0  0  0  0  0  0  0  0  0  0  0
    8.3695    1.7936    0.0000 H   0  0  0  0  0  0  0  0  0  0  0  0
    7.6793    1.3951    0.0000 H   0  0  0  0  0  0  0  0  0  0  0  0
    7.6542   -0.2936    0.0000 H   0  0  0  0  0  0  0  0  0  0  0  0
    8.3445    0.1049    0.0000 H   0  0  0  0  0  0  0  0  0  0  0  0
   14.1529    0.6550    0.0000 H   0  0  0  0  0  0  0  0  0  0  0  0
    6.4519    0.8539    0.0000 H   0  0  0  0  0  0  0  0  0  0  0  0
   16.1577    0.4290    0.0000 H   0  0  0  0  0  0  0  0  0  0  0  0
   16.1577    3.6690    0.0000 H   0  0  0  0  0  0  0  0  0  0  0  0
   17.5607    1.2390    0.0000 H   0  0  0  0  0  0  0  0  0  0  0  0
   17.5607    2.8590    0.0000 H   0  0  0  0  0  0  0  0  0  0  0  0
    4.8709    0.8450    0.0000 H   0  0  0  0  0  0  0  0  0  0  0  0
    2.8660    1.0710    0.0000 H   0  0  0  0  0  0  0  0  0  0  0  0
    1.4631   -1.3590    0.0000 H   0  0  0  0  0  0  0  0  0  0  0  0
    1.4631    0.2610    0.0000 H   0  0  0  0  0  0  0  0  0  0  0  0
    1.6900   -2.5121    0.0000 H   0  0  0  0  0  0  0  0  0  0  0  0
    1.4631   -3.3590    0.0000 H   0  0  0  0  0  0  0  0  0  0  0  0
    2.3100   -3.5860    0.0000 H   0  0  0  0  0  0  0  0  0  0  0  0
  1 25  1  0  0  0  0
  1 28  1  0  0  0  0
  2 22  2  0  0  0  0
  3 29  1  0  0  0  0
  3 33  1  0  0  0  0
  4  9  1  0  0  0  0
  4 10  1  0  0  0  0
  4 13  1  0  0  0  0
  5 11  1  0  0  0  0
  5 12  1  0  0  0  0
  5 15  1  0  0  0  0
  6 15  1  0  0  0  0
  6 18  1  0  0  0  0
  6 50  1  0  0  0  0
  7 15  2  0  0  0  0
  7 19  1  0  0  0  0
  8 17  1  0  0  0  0
  8 22  1  0  0  0  0
  8 51  1  0  0  0  0
  9 11  1  0  0  0  0
  9 34  1  0  0  0  0
  9 35  1  0  0  0  0
 10 12  1  0  0  0  0
 10 36  1  0  0  0  0
 10 37  1  0  0  0  0
 11 38  1  0  0  0  0
 11 39  1  0  0  0  0
 12 40  1  0  0  0  0
 12 41  1  0  0  0  0
 13 14  1  0  0  0  0
 13 42  1  0  0  0  0
 13 43  1  0  0  0  0
 14 16  1  0  0  0  0
 14 44  1  0  0  0  0
 14 45  1  0  0  0  0
 16 17  1  0  0  0  0
 16 46  1  0  0  0  0
 16 47  1  0  0  0  0
 17 48  1  0  0  0  0
 17 49  1  0  0  0  0
 18 19  1  0  0  0  0
 18 20  2  0  0  0  0
 19 21  2  0  0  0  0
 20 23  1  0  0  0  0
 20 52  1  0  0  0  0
 21 24  1  0  0  0  0
 21 53  1  0  0  0  0
 22 25  1  0  0  0  0
 23 24  2  0  0  0  0
 23 54  1  0  0  0  0
 24 55  1  0  0  0  0
 25 27  2  0  0  0  0
 26 27  1  0  0  0  0
 26 28  2  0  0  0  0
 26 30  1  0  0  0  0
 27 56  1  0  0  0  0
 28 29  1  0  0  0  0
 29 31  2  0  0  0  0
 30 32  2  0  0  0  0
 30 57  1  0  0  0  0
 31 32  1  0  0  0  0
 31 58  1  0  0  0  0
 32 59  1  0  0  0  0
 33 60  1  0  0  0  0
 33 61  1  0  0  0  0
 33 62  1  0  0  0  0
M  END
> <PUBCHEM_COMPOUND_CID>
11568543

> <PUBCHEM_COMPOUND_CANONICALIZED>
1

> <PUBCHEM_CACTVS_COMPLEXITY>
644

> <PUBCHEM_CACTVS_HBOND_ACCEPTOR>
6

> <PUBCHEM_CACTVS_HBOND_DONOR>
2

> <PUBCHEM_CACTVS_ROTATABLE_BOND>
8

> <PUBCHEM_CACTVS_SUBSKEYS>
AAADceB7sAAAAAAAAAAAAAAAAAAAAWJAAAA8YIAAAAAAAFgB/gAAHgAQAAAADAzBngYz1vfJlECoA6VydAKCiC2lMqAJmaH+/NiPbrLEvb+XOSrs1hPa6aeY/77uAAABAAAIQCAAAAIAABCAQAAAAAAAAA==

> <PUBCHEM_IUPAC_OPENEYE_NAME>
N-[4-[4-(1H-benzimidazol-2-yl)piperazin-1-yl]butyl]-7-methoxy-benzofuran-2-carboxamide

> <PUBCHEM_IUPAC_CAS_NAME>
N-[4-[4-(1H-benzimidazol-2-yl)-1-piperazinyl]butyl]-7-methoxy-2-benzofurancarboxamide

> <PUBCHEM_IUPAC_NAME_MARKUP>
<I>N</I>-[4-[4-(1<I>H</I>-benzimidazol-2-yl)piperazin-1-yl]butyl]-7-methoxy-1-benzofuran-2-carboxamide

> <PUBCHEM_IUPAC_NAME>
N-[4-[4-(1H-benzimidazol-2-yl)piperazin-1-yl]butyl]-7-methoxy-1-benzofuran-2-carboxamide

> <PUBCHEM_IUPAC_SYSTEMATIC_NAME>
N-[4-[4-(1H-benzimidazol-2-yl)piperazin-1-yl]butyl]-7-methoxy-1-benzofuran-2-carboxamide

> <PUBCHEM_IUPAC_TRADITIONAL_NAME>
N-[4-[4-(1H-benzimidazol-2-yl)piperazino]butyl]-7-methoxy-coumarilamide

> <PUBCHEM_IUPAC_INCHI>
InChI=1S/C25H29N5O3/c1-32-21-10-6-7-18-17-22(33-23(18)21)24(31)26-11-4-5-12-29-13-15-30(16-14-29)25-27-19-8-2-3-9-20(19)28-25/h2-3,6-10,17H,4-5,11-16H2,1H3,(H,26,31)(H,27,28)

> <PUBCHEM_IUPAC_INCHIKEY>
BGNLEFFBMRBOQF-UHFFFAOYSA-N

> <PUBCHEM_XLOGP3_AA>
4.1

> <PUBCHEM_EXACT_MASS>
447.22703980

> <PUBCHEM_MOLECULAR_FORMULA>
C25H29N5O3

> <PUBCHEM_MOLECULAR_WEIGHT>
447.5

> <PUBCHEM_OPENEYE_CAN_SMILES>
COC1=CC=CC2=C1OC(=C2)C(=O)NCCCCN3CCN(CC3)C4=NC5=CC=CC=C5N4

> <PUBCHEM_OPENEYE_ISO_SMILES>
COC1=CC=CC2=C1OC(=C2)C(=O)NCCCCN3CCN(CC3)C4=NC5=CC=CC=C5N4

> <PUBCHEM_CACTVS_TPSA>
86.6

> <PUBCHEM_MONOISOTOPIC_WEIGHT>
447.22703980

> <PUBCHEM_TOTAL_CHARGE>
0

> <PUBCHEM_HEAVY_ATOM_COUNT>
33

> <PUBCHEM_ATOM_DEF_STEREO_COUNT>
0

> <PUBCHEM_ATOM_UDEF_STEREO_COUNT>
0

> <PUBCHEM_BOND_DEF_STEREO_COUNT>
0

> <PUBCHEM_BOND_UDEF_STEREO_COUNT>
0

> <PUBCHEM_ISOTOPIC_ATOM_COUNT>
0

> <PUBCHEM_COMPONENT_COUNT>
1

> <PUBCHEM_CACTVS_TAUTO_COUNT>
-1

> <PUBCHEM_COORDINATE_TYPE>
1
5
255

> <PUBCHEM_BONDANNOTATIONS>
1  25  8
1  28  8
18  19  8
18  20  8
19  21  8
20  23  8
21  24  8
23  24  8
25  27  8
26  27  8
26  28  8
26  30  8
28  29  8
29  31  8
30  32  8
31  32  8
6  15  8
6  18  8
7  15  8
7  19  8

$$$$
