53363202
  -OEChem-09292322322D

150157  0     0  0  0  0  0  0999 V2000
   12.1062    9.8885    0.0000 O   0  0  0  0  0  0  0  0  0  0  0  0
   10.3742    8.8885    0.0000 O   0  0  0  0  0  0  0  0  0  0  0  0
    7.1962  -15.3885    0.0000 O   0  0  0  0  0  0  0  0  0  0  0  0
    4.5981   -7.8885    0.0000 O   0  0  0  0  0  0  0  0  0  0  0  0
    2.8660   -8.8885    0.0000 O   0  0  0  0  0  0  0  0  0  0  0  0
    7.7761   14.3885    0.0000 N   0  0  0  0  0  0  0  0  0  0  0  0
    9.5081   13.3885    0.0000 N   0  0  0  0  0  0  0  0  0  0  0  0
    5.4641  -12.3885    0.0000 N   0  0  0  0  0  0  0  0  0  0  0  0
    7.1962  -13.3885    0.0000 N   0  0  0  0  0  0  0  0  0  0  0  0
    8.1421    4.3496    0.0000 N   0  0  0  0  0  0  0  0  0  0  0  0
    9.4511    5.3007    0.0000 N   0  0  0  0  0  0  0  0  0  0  0  0
    6.8301   -3.3496    0.0000 N   0  0  0  0  0  0  0  0  0  0  0  0
    9.1421    4.3496    0.0000 N   0  0  0  0  0  0  0  0  0  0  0  0
    5.8301   -3.3496    0.0000 N   0  0  0  0  0  0  0  0  0  0  0  0
    5.5211   -4.3007    0.0000 N   0  0  0  0  0  0  0  0  0  0  0  0
    6.9101   14.8885    0.0000 C   0  0  0  0  0  0  0  0  0  0  0  0
    6.0440   14.3885    0.0000 C   0  0  0  0  0  0  0  0  0  0  0  0
    6.9101   15.8885    0.0000 C   0  0  0  0  0  0  0  0  0  0  0  0
    5.1780   14.8885    0.0000 C   0  0  0  0  0  0  0  0  0  0  0  0
    6.0440   16.3885    0.0000 C   0  0  0  0  0  0  0  0  0  0  0  0
    5.1780   15.8885    0.0000 C   0  0  0  0  0  0  0  0  0  0  0  0
    8.6421   14.8885    0.0000 C   0  0  0  0  0  0  0  0  0  0  0  0
    7.7761   13.3885    0.0000 C   0  0  0  0  0  0  0  0  0  0  0  0
    9.5081   14.3885    0.0000 C   0  0  0  0  0  0  0  0  0  0  0  0
    8.6421   12.8885    0.0000 C   0  0  0  0  0  0  0  0  0  0  0  0
   10.3742   12.8885    0.0000 C   0  0  0  0  0  0  0  0  0  0  0  0
   10.3742   11.8885    0.0000 C   0  0  0  0  0  0  0  0  0  0  0  0
   11.2402   11.3885    0.0000 C   0  0  0  0  0  0  0  0  0  0  0  0
    9.5081   11.3885    0.0000 C   0  0  0  0  0  0  0  0  0  0  0  0
   11.2402   10.3885    0.0000 C   0  0  0  0  0  0  0  0  0  0  0  0
    9.5081   10.3885    0.0000 C   0  0  0  0  0  0  0  0  0  0  0  0
   10.3742    9.8885    0.0000 C   0  0  0  0  0  0  0  0  0  0  0  0
    5.4641  -13.3885    0.0000 C   0  0  0  0  0  0  0  0  0  0  0  0
    6.3301  -11.8885    0.0000 C   0  0  0  0  0  0  0  0  0  0  0  0
    6.3301  -13.8885    0.0000 C   0  0  0  0  0  0  0  0  0  0  0  0
    7.1962  -12.3885    0.0000 C   0  0  0  0  0  0  0  0  0  0  0  0
    4.5981  -11.8885    0.0000 C   0  0  0  0  0  0  0  0  0  0  0  0
    9.5081    8.3885    0.0000 C   0  0  0  0  0  0  0  0  0  0  0  0
   12.9722   10.3885    0.0000 C   0  0  0  0  0  0  0  0  0  0  0  0
    8.0622  -13.8885    0.0000 C   0  0  0  0  0  0  0  0  0  0  0  0
    9.5081    7.3885    0.0000 C   0  0  0  0  0  0  0  0  0  0  0  0
    4.5981  -10.8885    0.0000 C   0  0  0  0  0  0  0  0  0  0  0  0
    8.0622  -14.8885    0.0000 C   0  0  0  0  0  0  0  0  0  0  0  0
    8.6421    6.8885    0.0000 C   0  0  0  0  0  0  0  0  0  0  0  0
    8.9282  -13.3885    0.0000 C   0  0  0  0  0  0  0  0  0  0  0  0
    3.7320  -10.3885    0.0000 C   0  0  0  0  0  0  0  0  0  0  0  0
    5.4641  -10.3885    0.0000 C   0  0  0  0  0  0  0  0  0  0  0  0
    8.9282  -15.3885    0.0000 C   0  0  0  0  0  0  0  0  0  0  0  0
    9.7942  -13.8885    0.0000 C   0  0  0  0  0  0  0  0  0  0  0  0
    8.6421    5.8885    0.0000 C   0  0  0  0  0  0  0  0  0  0  0  0
    7.7800    0.9045    0.0000 C   0  0  0  0  0  0  0  0  0  0  0  0
    7.1922    0.0955    0.0000 C   0  0  0  0  0  0  0  0  0  0  0  0
    7.3733    1.8180    0.0000 C   0  0  0  0  0  0  0  0  0  0  0  0
    3.7320   -9.3885    0.0000 C   0  0  0  0  0  0  0  0  0  0  0  0
    7.5990   -0.8181    0.0000 C   0  0  0  0  0  0  0  0  0  0  0  0
    7.9611    2.6271    0.0000 C   0  0  0  0  0  0  0  0  0  0  0  0
    5.4641   -9.3885    0.0000 C   0  0  0  0  0  0  0  0  0  0  0  0
    9.7942  -14.8885    0.0000 C   0  0  0  0  0  0  0  0  0  0  0  0
    4.5981   -8.8885    0.0000 C   0  0  0  0  0  0  0  0  0  0  0  0
    7.5543    3.5406    0.0000 C   0  0  0  0  0  0  0  0  0  0  0  0
    7.0112   -1.6271    0.0000 C   0  0  0  0  0  0  0  0  0  0  0  0
    7.8331    5.3007    0.0000 C   0  0  0  0  0  0  0  0  0  0  0  0
    7.4179   -2.5406    0.0000 C   0  0  0  0  0  0  0  0  0  0  0  0
    5.4641   -7.3885    0.0000 C   0  0  0  0  0  0  0  0  0  0  0  0
    5.4641   -6.3885    0.0000 C   0  0  0  0  0  0  0  0  0  0  0  0
    7.1962  -16.3885    0.0000 C   0  0  0  0  0  0  0  0  0  0  0  0
    6.3301   -5.8885    0.0000 C   0  0  0  0  0  0  0  0  0  0  0  0
    6.3301   -4.8885    0.0000 C   0  0  0  0  0  0  0  0  0  0  0  0
    7.1391   -4.3007    0.0000 C   0  0  0  0  0  0  0  0  0  0  0  0
    2.0000   -9.3885    0.0000 C   0  0  0  0  0  0  0  0  0  0  0  0
    7.4470   15.1985    0.0000 H   0  0  0  0  0  0  0  0  0  0  0  0
    5.6455   13.9135    0.0000 H   0  0  0  0  0  0  0  0  0  0  0  0
    6.4426   13.9135    0.0000 H   0  0  0  0  0  0  0  0  0  0  0  0
    7.5206   15.7808    0.0000 H   0  0  0  0  0  0  0  0  0  0  0  0
    7.1221   16.4711    0.0000 H   0  0  0  0  0  0  0  0  0  0  0  0
    4.5674   14.9961    0.0000 H   0  0  0  0  0  0  0  0  0  0  0  0
    4.9660   14.3059    0.0000 H   0  0  0  0  0  0  0  0  0  0  0  0
    6.4426   16.8634    0.0000 H   0  0  0  0  0  0  0  0  0  0  0  0
    5.6455   16.8634    0.0000 H   0  0  0  0  0  0  0  0  0  0  0  0
    4.9660   16.4711    0.0000 H   0  0  0  0  0  0  0  0  0  0  0  0
    4.5674   15.7808    0.0000 H   0  0  0  0  0  0  0  0  0  0  0  0
    9.0406   15.3634    0.0000 H   0  0  0  0  0  0  0  0  0  0  0  0
    8.2436   15.3634    0.0000 H   0  0  0  0  0  0  0  0  0  0  0  0
    7.1655   13.4961    0.0000 H   0  0  0  0  0  0  0  0  0  0  0  0
    7.5640   12.8059    0.0000 H   0  0  0  0  0  0  0  0  0  0  0  0
   10.1187   14.2808    0.0000 H   0  0  0  0  0  0  0  0  0  0  0  0
    9.7202   14.9711    0.0000 H   0  0  0  0  0  0  0  0  0  0  0  0
    8.2436   12.4135    0.0000 H   0  0  0  0  0  0  0  0  0  0  0  0
    9.0406   12.4135    0.0000 H   0  0  0  0  0  0  0  0  0  0  0  0
   10.9847   12.7808    0.0000 H   0  0  0  0  0  0  0  0  0  0  0  0
   10.5862   13.4711    0.0000 H   0  0  0  0  0  0  0  0  0  0  0  0
   11.7771   11.6985    0.0000 H   0  0  0  0  0  0  0  0  0  0  0  0
    8.9712   11.6985    0.0000 H   0  0  0  0  0  0  0  0  0  0  0  0
    8.9712   10.0785    0.0000 H   0  0  0  0  0  0  0  0  0  0  0  0
    4.8535  -13.2808    0.0000 H   0  0  0  0  0  0  0  0  0  0  0  0
    5.2520  -13.9711    0.0000 H   0  0  0  0  0  0  0  0  0  0  0  0
    6.7287  -11.4135    0.0000 H   0  0  0  0  0  0  0  0  0  0  0  0
    5.9316  -11.4135    0.0000 H   0  0  0  0  0  0  0  0  0  0  0  0
    5.9316  -14.3634    0.0000 H   0  0  0  0  0  0  0  0  0  0  0  0
    6.7287  -14.3634    0.0000 H   0  0  0  0  0  0  0  0  0  0  0  0
    7.8067  -12.4961    0.0000 H   0  0  0  0  0  0  0  0  0  0  0  0
    7.4082  -11.8059    0.0000 H   0  0  0  0  0  0  0  0  0  0  0  0
    3.9875  -11.7808    0.0000 H   0  0  0  0  0  0  0  0  0  0  0  0
    4.3860  -12.4711    0.0000 H   0  0  0  0  0  0  0  0  0  0  0  0
    9.2961    8.9711    0.0000 H   0  0  0  0  0  0  0  0  0  0  0  0
    8.8976    8.2808    0.0000 H   0  0  0  0  0  0  0  0  0  0  0  0
   13.2822    9.8515    0.0000 H   0  0  0  0  0  0  0  0  0  0  0  0
   13.5092   10.6985    0.0000 H   0  0  0  0  0  0  0  0  0  0  0  0
   12.6622   10.9254    0.0000 H   0  0  0  0  0  0  0  0  0  0  0  0
    9.7202    6.8059    0.0000 H   0  0  0  0  0  0  0  0  0  0  0  0
   10.1187    7.4961    0.0000 H   0  0  0  0  0  0  0  0  0  0  0  0
    8.9282  -12.7685    0.0000 H   0  0  0  0  0  0  0  0  0  0  0  0
    8.4300    7.4711    0.0000 H   0  0  0  0  0  0  0  0  0  0  0  0
    8.0315    6.7808    0.0000 H   0  0  0  0  0  0  0  0  0  0  0  0
    3.1951  -10.6985    0.0000 H   0  0  0  0  0  0  0  0  0  0  0  0
    6.0010  -10.6985    0.0000 H   0  0  0  0  0  0  0  0  0  0  0  0
    8.9282  -16.0085    0.0000 H   0  0  0  0  0  0  0  0  0  0  0  0
    8.2107    0.4585    0.0000 H   0  0  0  0  0  0  0  0  0  0  0  0
    8.2940    1.2512    0.0000 H   0  0  0  0  0  0  0  0  0  0  0  0
   10.3312  -13.5785    0.0000 H   0  0  0  0  0  0  0  0  0  0  0  0
    6.7615    0.5415    0.0000 H   0  0  0  0  0  0  0  0  0  0  0  0
    6.6782   -0.2512    0.0000 H   0  0  0  0  0  0  0  0  0  0  0  0
    6.9426    2.2640    0.0000 H   0  0  0  0  0  0  0  0  0  0  0  0
    6.8593    1.4714    0.0000 H   0  0  0  0  0  0  0  0  0  0  0  0
    8.0296   -1.2640    0.0000 H   0  0  0  0  0  0  0  0  0  0  0  0
    8.1130   -0.4714    0.0000 H   0  0  0  0  0  0  0  0  0  0  0  0
    8.3918    2.1811    0.0000 H   0  0  0  0  0  0  0  0  0  0  0  0
    8.4751    2.9738    0.0000 H   0  0  0  0  0  0  0  0  0  0  0  0
    6.0010   -9.0785    0.0000 H   0  0  0  0  0  0  0  0  0  0  0  0
   10.3312  -15.1985    0.0000 H   0  0  0  0  0  0  0  0  0  0  0  0
    7.1236    3.9866    0.0000 H   0  0  0  0  0  0  0  0  0  0  0  0
    7.0403    3.1939    0.0000 H   0  0  0  0  0  0  0  0  0  0  0  0
    6.5805   -1.1811    0.0000 H   0  0  0  0  0  0  0  0  0  0  0  0
    6.4972   -1.9738    0.0000 H   0  0  0  0  0  0  0  0  0  0  0  0
    7.2434    5.4923    0.0000 H   0  0  0  0  0  0  0  0  0  0  0  0
    7.8486   -2.9866    0.0000 H   0  0  0  0  0  0  0  0  0  0  0  0
    7.9319   -2.1939    0.0000 H   0  0  0  0  0  0  0  0  0  0  0  0
    5.6762   -7.9711    0.0000 H   0  0  0  0  0  0  0  0  0  0  0  0
    6.0747   -7.2808    0.0000 H   0  0  0  0  0  0  0  0  0  0  0  0
    5.2520   -5.8059    0.0000 H   0  0  0  0  0  0  0  0  0  0  0  0
    4.8535   -6.4961    0.0000 H   0  0  0  0  0  0  0  0  0  0  0  0
    6.5762  -16.3885    0.0000 H   0  0  0  0  0  0  0  0  0  0  0  0
    7.1962  -17.0085    0.0000 H   0  0  0  0  0  0  0  0  0  0  0  0
    7.8162  -16.3885    0.0000 H   0  0  0  0  0  0  0  0  0  0  0  0
    6.5422   -6.4711    0.0000 H   0  0  0  0  0  0  0  0  0  0  0  0
    6.9407   -5.7808    0.0000 H   0  0  0  0  0  0  0  0  0  0  0  0
    7.7288   -4.4923    0.0000 H   0  0  0  0  0  0  0  0  0  0  0  0
    1.6900   -8.8515    0.0000 H   0  0  0  0  0  0  0  0  0  0  0  0
    1.4631   -9.6985    0.0000 H   0  0  0  0  0  0  0  0  0  0  0  0
    2.3100   -9.9254    0.0000 H   0  0  0  0  0  0  0  0  0  0  0  0
  1 30  1  0  0  0  0
  1 39  1  0  0  0  0
  2 32  1  0  0  0  0
  2 38  1  0  0  0  0
  3 43  1  0  0  0  0
  3 66  1  0  0  0  0
  4 59  1  0  0  0  0
  4 64  1  0  0  0  0
  5 54  1  0  0  0  0
  5 70  1  0  0  0  0
  6 16  1  0  0  0  0
  6 22  1  0  0  0  0
  6 23  1  0  0  0  0
  7 24  1  0  0  0  0
  7 25  1  0  0  0  0
  7 26  1  0  0  0  0
  8 33  1  0  0  0  0
  8 34  1  0  0  0  0
  8 37  1  0  0  0  0
  9 35  1  0  0  0  0
  9 36  1  0  0  0  0
  9 40  1  0  0  0  0
 10 13  1  0  0  0  0
 10 60  1  0  0  0  0
 10 62  1  0  0  0  0
 11 13  2  0  0  0  0
 11 50  1  0  0  0  0
 12 14  1  0  0  0  0
 12 63  1  0  0  0  0
 12 69  1  0  0  0  0
 14 15  2  0  0  0  0
 15 68  1  0  0  0  0
 16 17  1  0  0  0  0
 16 18  1  0  0  0  0
 16 71  1  0  0  0  0
 17 19  1  0  0  0  0
 17 72  1  0  0  0  0
 17 73  1  0  0  0  0
 18 20  1  0  0  0  0
 18 74  1  0  0  0  0
 18 75  1  0  0  0  0
 19 21  1  0  0  0  0
 19 76  1  0  0  0  0
 19 77  1  0  0  0  0
 20 21  1  0  0  0  0
 20 78  1  0  0  0  0
 20 79  1  0  0  0  0
 21 80  1  0  0  0  0
 21 81  1  0  0  0  0
 22 24  1  0  0  0  0
 22 82  1  0  0  0  0
 22 83  1  0  0  0  0
 23 25  1  0  0  0  0
 23 84  1  0  0  0  0
 23 85  1  0  0  0  0
 24 86  1  0  0  0  0
 24 87  1  0  0  0  0
 25 88  1  0  0  0  0
 25 89  1  0  0  0  0
 26 27  1  0  0  0  0
 26 90  1  0  0  0  0
 26 91  1  0  0  0  0
 27 28  2  0  0  0  0
 27 29  1  0  0  0  0
 28 30  1  0  0  0  0
 28 92  1  0  0  0  0
 29 31  2  0  0  0  0
 29 93  1  0  0  0  0
 30 32  2  0  0  0  0
 31 32  1  0  0  0  0
 31 94  1  0  0  0  0
 33 35  1  0  0  0  0
 33 95  1  0  0  0  0
 33 96  1  0  0  0  0
 34 36  1  0  0  0  0
 34 97  1  0  0  0  0
 34 98  1  0  0  0  0
 35 99  1  0  0  0  0
 35100  1  0  0  0  0
 36101  1  0  0  0  0
 36102  1  0  0  0  0
 37 42  1  0  0  0  0
 37103  1  0  0  0  0
 37104  1  0  0  0  0
 38 41  1  0  0  0  0
 38105  1  0  0  0  0
 38106  1  0  0  0  0
 39107  1  0  0  0  0
 39108  1  0  0  0  0
 39109  1  0  0  0  0
 40 43  1  0  0  0  0
 40 45  2  0  0  0  0
 41 44  1  0  0  0  0
 41110  1  0  0  0  0
 41111  1  0  0  0  0
 42 46  2  0  0  0  0
 42 47  1  0  0  0  0
 43 48  2  0  0  0  0
 44 50  1  0  0  0  0
 44113  1  0  0  0  0
 44114  1  0  0  0  0
 45 49  1  0  0  0  0
 45112  1  0  0  0  0
 46 54  1  0  0  0  0
 46115  1  0  0  0  0
 47 57  2  0  0  0  0
 47116  1  0  0  0  0
 48 58  1  0  0  0  0
 48117  1  0  0  0  0
 49 58  2  0  0  0  0
 49120  1  0  0  0  0
 50 62  2  0  0  0  0
 51 52  1  0  0  0  0
 51 53  1  0  0  0  0
 51118  1  0  0  0  0
 51119  1  0  0  0  0
 52 55  1  0  0  0  0
 52121  1  0  0  0  0
 52122  1  0  0  0  0
 53 56  1  0  0  0  0
 53123  1  0  0  0  0
 53124  1  0  0  0  0
 54 59  2  0  0  0  0
 55 61  1  0  0  0  0
 55125  1  0  0  0  0
 55126  1  0  0  0  0
 56 60  1  0  0  0  0
 56127  1  0  0  0  0
 56128  1  0  0  0  0
 57 59  1  0  0  0  0
 57129  1  0  0  0  0
 58130  1  0  0  0  0
 60131  1  0  0  0  0
 60132  1  0  0  0  0
 61 63  1  0  0  0  0
 61133  1  0  0  0  0
 61134  1  0  0  0  0
 62135  1  0  0  0  0
 63136  1  0  0  0  0
 63137  1  0  0  0  0
 64 65  1  0  0  0  0
 64138  1  0  0  0  0
 64139  1  0  0  0  0
 65 67  1  0  0  0  0
 65140  1  0  0  0  0
 65141  1  0  0  0  0
 66142  1  0  0  0  0
 66143  1  0  0  0  0
 66144  1  0  0  0  0
 67 68  1  0  0  0  0
 67145  1  0  0  0  0
 67146  1  0  0  0  0
 68 69  2  0  0  0  0
 69147  1  0  0  0  0
 70148  1  0  0  0  0
 70149  1  0  0  0  0
 70150  1  0  0  0  0
M  END
> <PUBCHEM_COMPOUND_CID>
53363202

> <PUBCHEM_COMPOUND_CANONICALIZED>
1

> <PUBCHEM_CACTVS_COMPLEXITY>
1390

> <PUBCHEM_CACTVS_HBOND_ACCEPTOR>
13

> <PUBCHEM_CACTVS_HBOND_DONOR>
0

> <PUBCHEM_CACTVS_ROTATABLE_BOND>
28

> <PUBCHEM_CACTVS_SUBSKEYS>
AAADcfB/+AAAAAAAAAAAAAAAAAAAAWLAAAA8eMGCAAAAAAAB9AAAHgAIAAAADCzhngY+xpMIBACiAzRnRACCDAQxsgAY2AA//IgPZiLEsZuXOCrkwBHa6Aew0JIOIAABAAAAUABAAAIAAACgAAAAAAAAAA==

> <PUBCHEM_IUPAC_OPENEYE_NAME>
1-cyclohexyl-4-[[3-methoxy-4-[3-[1-[8-[4-[3-[2-methoxy-4-[[4-(2-methoxyphenyl)piperazin-1-yl]methyl]phenoxy]propyl]triazol-1-yl]octyl]triazol-4-yl]propoxy]phenyl]methyl]piperazine

> <PUBCHEM_IUPAC_CAS_NAME>
1-cyclohexyl-4-[[3-methoxy-4-[3-[1-[8-[4-[3-[2-methoxy-4-[[4-(2-methoxyphenyl)-1-piperazinyl]methyl]phenoxy]propyl]-1-triazolyl]octyl]-4-triazolyl]propoxy]phenyl]methyl]piperazine

> <PUBCHEM_IUPAC_NAME_MARKUP>
1-cyclohexyl-4-[[3-methoxy-4-[3-[1-[8-[4-[3-[2-methoxy-4-[[4-(2-methoxyphenyl)piperazin-1-yl]methyl]phenoxy]propyl]triazol-1-yl]octyl]triazol-4-yl]propoxy]phenyl]methyl]piperazine

> <PUBCHEM_IUPAC_NAME>
1-cyclohexyl-4-[[3-methoxy-4-[3-[1-[8-[4-[3-[2-methoxy-4-[[4-(2-methoxyphenyl)piperazin-1-yl]methyl]phenoxy]propyl]triazol-1-yl]octyl]triazol-4-yl]propoxy]phenyl]methyl]piperazine

> <PUBCHEM_IUPAC_SYSTEMATIC_NAME>
1-cyclohexyl-4-[[3-methoxy-4-[3-[1-[8-[4-[3-[2-methoxy-4-[[4-(2-methoxyphenyl)piperazin-1-yl]methyl]phenoxy]propyl]-1,2,3-triazol-1-yl]octyl]-1,2,3-triazol-4-yl]propoxy]phenyl]methyl]piperazine

> <PUBCHEM_IUPAC_TRADITIONAL_NAME>
1-cyclohexyl-4-[3-methoxy-4-[3-[1-[8-[4-[3-[2-methoxy-4-[[4-(2-methoxyphenyl)piperazino]methyl]phenoxy]propyl]triazol-1-yl]octyl]triazol-4-yl]propoxy]benzyl]piperazine

> <PUBCHEM_IUPAC_INCHI>
InChI=1S/C55H80N10O5/c1-66-51-22-12-11-21-50(51)63-35-31-61(32-36-63)42-46-24-26-53(55(40-46)68-3)70-38-16-18-48-44-65(59-57-48)28-14-7-5-4-6-13-27-64-43-47(56-58-64)17-15-37-69-52-25-23-45(39-54(52)67-2)41-60-29-33-62(34-30-60)49-19-9-8-10-20-49/h11-12,21-26,39-40,43-44,49H,4-10,13-20,27-38,41-42H2,1-3H3

> <PUBCHEM_IUPAC_INCHIKEY>
PTGSXEXRDSETGR-UHFFFAOYSA-N

> <PUBCHEM_XLOGP3_AA>
9

> <PUBCHEM_EXACT_MASS>
960.63131569

> <PUBCHEM_MOLECULAR_FORMULA>
C55H80N10O5

> <PUBCHEM_MOLECULAR_WEIGHT>
961.3

> <PUBCHEM_OPENEYE_CAN_SMILES>
COC1=CC=CC=C1N2CCN(CC2)CC3=CC(=C(C=C3)OCCCC4=CN(N=N4)CCCCCCCCN5C=C(N=N5)CCCOC6=C(C=C(C=C6)CN7CCN(CC7)C8CCCCC8)OC)OC

> <PUBCHEM_OPENEYE_ISO_SMILES>
COC1=CC=CC=C1N2CCN(CC2)CC3=CC(=C(C=C3)OCCCC4=CN(N=N4)CCCCCCCCN5C=C(N=N5)CCCOC6=C(C=C(C=C6)CN7CCN(CC7)C8CCCCC8)OC)OC

> <PUBCHEM_CACTVS_TPSA>
121

> <PUBCHEM_MONOISOTOPIC_WEIGHT>
960.63131569

> <PUBCHEM_TOTAL_CHARGE>
0

> <PUBCHEM_HEAVY_ATOM_COUNT>
70

> <PUBCHEM_ATOM_DEF_STEREO_COUNT>
0

> <PUBCHEM_ATOM_UDEF_STEREO_COUNT>
0

> <PUBCHEM_BOND_DEF_STEREO_COUNT>
0

> <PUBCHEM_BOND_UDEF_STEREO_COUNT>
0

> <PUBCHEM_ISOTOPIC_ATOM_COUNT>
0

> <PUBCHEM_COMPONENT_COUNT>
1

> <PUBCHEM_CACTVS_TAUTO_COUNT>
-1

> <PUBCHEM_COORDINATE_TYPE>
1
5
255

> <PUBCHEM_BONDANNOTATIONS>
10  13  8
10  62  8
11  13  8
11  50  8
12  14  8
12  69  8
14  15  8
15  68  8
27  28  8
27  29  8
28  30  8
29  31  8
30  32  8
31  32  8
40  43  8
40  45  8
42  46  8
42  47  8
43  48  8
45  49  8
46  54  8
47  57  8
48  58  8
49  58  8
50  62  8
54  59  8
57  59  8
68  69  8

$$$$
