132257256
  -OEChem-09292322422D

 57 60  0     0  0  0  0  0  0999 V2000
    4.0000   -4.9994    0.0000 Cl  0  0  0  0  0  0  0  0  0  0  0  0
    2.0000   -4.9994    0.0000 Cl  0  0  0  0  0  0  0  0  0  0  0  0
    7.8660   -2.0353    0.0000 F   0  0  0  0  0  0  0  0  0  0  0  0
    3.5000   -0.6693    0.0000 O   0  0  0  0  0  0  0  0  0  0  0  0
    9.5981    1.9647    0.0000 O   0  0  0  0  0  0  0  0  0  0  0  0
   11.3580    2.9301    0.0000 O   0  0  0  0  0  0  0  0  0  0  0  0
   11.3580    4.9994    0.0000 O   0  0  0  0  0  0  0  0  0  0  0  0
    5.0000   -1.5353    0.0000 N   0  0  0  0  0  0  0  0  0  0  0  0
    7.8660   -0.0353    0.0000 N   0  0  0  0  0  0  0  0  0  0  0  0
    7.0000   -1.5353    0.0000 C   0  0  0  0  0  0  0  0  0  0  0  0
    6.5000   -2.4013    0.0000 C   0  0  0  0  0  0  0  0  0  0  0  0
    6.5000   -0.6693    0.0000 C   0  0  0  0  0  0  0  0  0  0  0  0
    5.5000   -2.4013    0.0000 C   0  0  0  0  0  0  0  0  0  0  0  0
    5.5000   -0.6693    0.0000 C   0  0  0  0  0  0  0  0  0  0  0  0
    7.8660   -1.0353    0.0000 C   0  0  0  0  0  0  0  0  0  0  0  0
    4.0000   -1.5353    0.0000 C   0  0  0  0  0  0  0  0  0  0  0  0
    8.7320    0.4647    0.0000 C   0  0  0  0  0  0  0  0  0  0  0  0
    3.5000   -2.4013    0.0000 C   0  0  0  0  0  0  0  0  0  0  0  0
    8.7320    1.4647    0.0000 C   0  0  0  0  0  0  0  0  0  0  0  0
    4.0000   -3.2673    0.0000 C   0  0  0  0  0  0  0  0  0  0  0  0
    2.5000   -2.4013    0.0000 C   0  0  0  0  0  0  0  0  0  0  0  0
    9.5981    2.9647    0.0000 C   0  0  0  0  0  0  0  0  0  0  0  0
    3.5000   -4.1334    0.0000 C   0  0  0  0  0  0  0  0  0  0  0  0
    2.0000   -3.2673    0.0000 C   0  0  0  0  0  0  0  0  0  0  0  0
   10.4641    3.4647    0.0000 C   0  0  0  0  0  0  0  0  0  0  0  0
    2.5000   -4.1334    0.0000 C   0  0  0  0  0  0  0  0  0  0  0  0
   10.4641    4.4647    0.0000 C   0  0  0  0  0  0  0  0  0  0  0  0
    8.7320    3.4647    0.0000 C   0  0  0  0  0  0  0  0  0  0  0  0
   12.2641    3.4439    0.0000 C   0  0  0  0  0  0  0  0  0  0  0  0
   12.2641    4.4855    0.0000 C   0  0  0  0  0  0  0  0  0  0  0  0
    9.5981    4.9647    0.0000 C   0  0  0  0  0  0  0  0  0  0  0  0
    8.7320    4.4647    0.0000 C   0  0  0  0  0  0  0  0  0  0  0  0
    6.3923   -3.0119    0.0000 H   0  0  0  0  0  0  0  0  0  0  0  0
    7.0826   -2.6134    0.0000 H   0  0  0  0  0  0  0  0  0  0  0  0
    7.0826   -0.4572    0.0000 H   0  0  0  0  0  0  0  0  0  0  0  0
    6.3923   -0.0587    0.0000 H   0  0  0  0  0  0  0  0  0  0  0  0
    4.9174   -2.6134    0.0000 H   0  0  0  0  0  0  0  0  0  0  0  0
    5.6077   -3.0119    0.0000 H   0  0  0  0  0  0  0  0  0  0  0  0
    5.6077   -0.0587    0.0000 H   0  0  0  0  0  0  0  0  0  0  0  0
    4.9174   -0.4572    0.0000 H   0  0  0  0  0  0  0  0  0  0  0  0
    8.0781   -1.6179    0.0000 H   0  0  0  0  0  0  0  0  0  0  0  0
    8.4766   -0.9276    0.0000 H   0  0  0  0  0  0  0  0  0  0  0  0
    7.3291    0.2747    0.0000 H   0  0  0  0  0  0  0  0  0  0  0  0
    8.9441   -0.1179    0.0000 H   0  0  0  0  0  0  0  0  0  0  0  0
    9.3426    0.5724    0.0000 H   0  0  0  0  0  0  0  0  0  0  0  0
    8.5200    2.0473    0.0000 H   0  0  0  0  0  0  0  0  0  0  0  0
    8.1215    1.3571    0.0000 H   0  0  0  0  0  0  0  0  0  0  0  0
    4.6200   -3.2673    0.0000 H   0  0  0  0  0  0  0  0  0  0  0  0
    2.1900   -1.8644    0.0000 H   0  0  0  0  0  0  0  0  0  0  0  0
    1.3800   -3.2673    0.0000 H   0  0  0  0  0  0  0  0  0  0  0  0
    8.1951    3.1547    0.0000 H   0  0  0  0  0  0  0  0  0  0  0  0
   12.4732    2.8602    0.0000 H   0  0  0  0  0  0  0  0  0  0  0  0
   12.8750    3.5500    0.0000 H   0  0  0  0  0  0  0  0  0  0  0  0
   12.8750    4.3794    0.0000 H   0  0  0  0  0  0  0  0  0  0  0  0
   12.4732    5.0692    0.0000 H   0  0  0  0  0  0  0  0  0  0  0  0
    9.5981    5.5847    0.0000 H   0  0  0  0  0  0  0  0  0  0  0  0
    8.1951    4.7747    0.0000 H   0  0  0  0  0  0  0  0  0  0  0  0
  1 23  1  0  0  0  0
  2 26  1  0  0  0  0
  3 10  1  0  0  0  0
  4 16  2  0  0  0  0
  5 19  1  0  0  0  0
  5 22  1  0  0  0  0
  6 25  1  0  0  0  0
  6 29  1  0  0  0  0
  7 27  1  0  0  0  0
  7 30  1  0  0  0  0
  8 13  1  0  0  0  0
  8 14  1  0  0  0  0
  8 16  1  0  0  0  0
  9 15  1  0  0  0  0
  9 17  1  0  0  0  0
  9 43  1  0  0  0  0
 10 11  1  0  0  0  0
 10 12  1  0  0  0  0
 10 15  1  0  0  0  0
 11 13  1  0  0  0  0
 11 33  1  0  0  0  0
 11 34  1  0  0  0  0
 12 14  1  0  0  0  0
 12 35  1  0  0  0  0
 12 36  1  0  0  0  0
 13 37  1  0  0  0  0
 13 38  1  0  0  0  0
 14 39  1  0  0  0  0
 14 40  1  0  0  0  0
 15 41  1  0  0  0  0
 15 42  1  0  0  0  0
 16 18  1  0  0  0  0
 17 19  1  0  0  0  0
 17 44  1  0  0  0  0
 17 45  1  0  0  0  0
 18 20  2  0  0  0  0
 18 21  1  0  0  0  0
 19 46  1  0  0  0  0
 19 47  1  0  0  0  0
 20 23  1  0  0  0  0
 20 48  1  0  0  0  0
 21 24  2  0  0  0  0
 21 49  1  0  0  0  0
 22 25  1  0  0  0  0
 22 28  2  0  0  0  0
 23 26  2  0  0  0  0
 24 26  1  0  0  0  0
 24 50  1  0  0  0  0
 25 27  2  0  0  0  0
 27 31  1  0  0  0  0
 28 32  1  0  0  0  0
 28 51  1  0  0  0  0
 29 30  1  0  0  0  0
 29 52  1  0  0  0  0
 29 53  1  0  0  0  0
 30 54  1  0  0  0  0
 30 55  1  0  0  0  0
 31 32  2  0  0  0  0
 31 56  1  0  0  0  0
 32 57  1  0  0  0  0
M  END
> <PUBCHEM_COMPOUND_CID>
132257256

> <PUBCHEM_COMPOUND_CANONICALIZED>
1

> <PUBCHEM_CACTVS_COMPLEXITY>
623

> <PUBCHEM_CACTVS_HBOND_ACCEPTOR>
6

> <PUBCHEM_CACTVS_HBOND_DONOR>
1

> <PUBCHEM_CACTVS_ROTATABLE_BOND>
7

> <PUBCHEM_CACTVS_SUBSKEYS>
AAADceB7OQAGAAAAAAAAAAAAAAAAAAAAAAA8aIEAAAAAAACRQAAAHwIQAAAADAbhmCYwBoPABACIAiFSEACCCAAkJQAIisEOjsgPJzKFtxuHOSrl1hWaqYeY6AyOBAAAKAAAQAQIAABQAACACAAAAAAAAA==

> <PUBCHEM_IUPAC_OPENEYE_NAME>
(3,4-dichlorophenyl)-[4-[[2-(2,3-dihydro-1,4-benzodioxin-5-yloxy)ethylamino]methyl]-4-fluoro-1-piperidyl]methanone

> <PUBCHEM_IUPAC_CAS_NAME>
(3,4-dichlorophenyl)-[4-[[2-(2,3-dihydro-1,4-benzodioxin-5-yloxy)ethylamino]methyl]-4-fluoro-1-piperidinyl]methanone

> <PUBCHEM_IUPAC_NAME_MARKUP>
(3,4-dichlorophenyl)-[4-[[2-(2,3-dihydro-1,4-benzodioxin-5-yloxy)ethylamino]methyl]-4-fluoropiperidin-1-yl]methanone

> <PUBCHEM_IUPAC_NAME>
(3,4-dichlorophenyl)-[4-[[2-(2,3-dihydro-1,4-benzodioxin-5-yloxy)ethylamino]methyl]-4-fluoropiperidin-1-yl]methanone

> <PUBCHEM_IUPAC_SYSTEMATIC_NAME>
(3,4-dichlorophenyl)-[4-[[2-(2,3-dihydro-1,4-benzodioxin-5-yloxy)ethylamino]methyl]-4-fluoranyl-piperidin-1-yl]methanone

> <PUBCHEM_IUPAC_TRADITIONAL_NAME>
(3,4-dichlorophenyl)-[4-[[2-(2,3-dihydro-1,4-benzodioxin-5-yloxy)ethylamino]methyl]-4-fluoro-piperidino]methanone

> <PUBCHEM_IUPAC_INCHI>
InChI=1S/C23H25Cl2FN2O4/c24-17-5-4-16(14-18(17)25)22(29)28-9-6-23(26,7-10-28)15-27-8-11-30-19-2-1-3-20-21(19)32-13-12-31-20/h1-5,14,27H,6-13,15H2

> <PUBCHEM_IUPAC_INCHIKEY>
GGRNBVPHYHLXDV-UHFFFAOYSA-N

> <PUBCHEM_XLOGP3_AA>
4.3

> <PUBCHEM_EXACT_MASS>
482.1175408

> <PUBCHEM_MOLECULAR_FORMULA>
C23H25Cl2FN2O4

> <PUBCHEM_MOLECULAR_WEIGHT>
483.4

> <PUBCHEM_OPENEYE_CAN_SMILES>
C1CN(CCC1(CNCCOC2=CC=CC3=C2OCCO3)F)C(=O)C4=CC(=C(C=C4)Cl)Cl

> <PUBCHEM_OPENEYE_ISO_SMILES>
C1CN(CCC1(CNCCOC2=CC=CC3=C2OCCO3)F)C(=O)C4=CC(=C(C=C4)Cl)Cl

> <PUBCHEM_CACTVS_TPSA>
60

> <PUBCHEM_MONOISOTOPIC_WEIGHT>
482.1175408

> <PUBCHEM_TOTAL_CHARGE>
0

> <PUBCHEM_HEAVY_ATOM_COUNT>
32

> <PUBCHEM_ATOM_DEF_STEREO_COUNT>
0

> <PUBCHEM_ATOM_UDEF_STEREO_COUNT>
0

> <PUBCHEM_BOND_DEF_STEREO_COUNT>
0

> <PUBCHEM_BOND_UDEF_STEREO_COUNT>
0

> <PUBCHEM_ISOTOPIC_ATOM_COUNT>
0

> <PUBCHEM_COMPONENT_COUNT>
1

> <PUBCHEM_CACTVS_TAUTO_COUNT>
-1

> <PUBCHEM_COORDINATE_TYPE>
1
5
255

> <PUBCHEM_BONDANNOTATIONS>
18  20  8
18  21  8
20  23  8
21  24  8
22  25  8
22  28  8
23  26  8
24  26  8
25  27  8
27  31  8
28  32  8
31  32  8

$$$$
