53483975
  -OEChem-09292322482D

 55 58  0     0  0  0  0  0  0999 V2000
    4.6783    1.2933    0.0000 O   0  0  0  0  0  0  0  0  0  0  0  0
   13.7619   -2.2320    0.0000 O   0  0  0  0  0  0  0  0  0  0  0  0
    7.7619   -0.5000    0.0000 N   0  0  0  0  0  0  0  0  0  0  0  0
    6.7619    1.2320    0.0000 N   0  0  0  0  0  0  0  0  0  0  0  0
    8.2619    0.3660    0.0000 C   0  0  0  0  0  0  0  0  0  0  0  0
    6.7619   -0.5000    0.0000 C   0  0  0  0  0  0  0  0  0  0  0  0
    7.7619    1.2320    0.0000 C   0  0  0  0  0  0  0  0  0  0  0  0
    6.2619    0.3660    0.0000 C   0  0  0  0  0  0  0  0  0  0  0  0
    8.2619   -1.3660    0.0000 C   0  0  0  0  0  0  0  0  0  0  0  0
    6.2619    2.0981    0.0000 C   0  0  0  0  0  0  0  0  0  0  0  0
    9.2619   -1.3660    0.0000 C   0  0  0  0  0  0  0  0  0  0  0  0
    9.7619   -2.2320    0.0000 C   0  0  0  0  0  0  0  0  0  0  0  0
    5.2619    2.0981    0.0000 C   0  0  0  0  0  0  0  0  0  0  0  0
   10.7619   -2.2320    0.0000 C   0  0  0  0  0  0  0  0  0  0  0  0
    4.6783    2.9028    0.0000 C   0  0  0  0  0  0  0  0  0  0  0  0
    3.7320    2.5981    0.0000 C   0  0  0  0  0  0  0  0  0  0  0  0
    3.7320    1.5981    0.0000 C   0  0  0  0  0  0  0  0  0  0  0  0
   11.2619   -3.0981    0.0000 C   0  0  0  0  0  0  0  0  0  0  0  0
   11.2619   -1.3660    0.0000 C   0  0  0  0  0  0  0  0  0  0  0  0
    2.8660    3.0981    0.0000 C   0  0  0  0  0  0  0  0  0  0  0  0
    2.8660    1.0981    0.0000 C   0  0  0  0  0  0  0  0  0  0  0  0
   12.2619   -3.0981    0.0000 C   0  0  0  0  0  0  0  0  0  0  0  0
   12.2619   -1.3660    0.0000 C   0  0  0  0  0  0  0  0  0  0  0  0
    2.0000    2.5981    0.0000 C   0  0  0  0  0  0  0  0  0  0  0  0
    2.0000    1.5981    0.0000 C   0  0  0  0  0  0  0  0  0  0  0  0
   12.7619   -2.2320    0.0000 C   0  0  0  0  0  0  0  0  0  0  0  0
   14.2619   -3.0981    0.0000 C   0  0  0  0  0  0  0  0  0  0  0  0
    8.7368   -0.0325    0.0000 H   0  0  0  0  0  0  0  0  0  0  0  0
    8.7368    0.7646    0.0000 H   0  0  0  0  0  0  0  0  0  0  0  0
    6.1793   -0.7121    0.0000 H   0  0  0  0  0  0  0  0  0  0  0  0
    6.8695   -1.1106    0.0000 H   0  0  0  0  0  0  0  0  0  0  0  0
    8.3445    1.4441    0.0000 H   0  0  0  0  0  0  0  0  0  0  0  0
    7.6542    1.8426    0.0000 H   0  0  0  0  0  0  0  0  0  0  0  0
    5.7869    0.7646    0.0000 H   0  0  0  0  0  0  0  0  0  0  0  0
    5.7869   -0.0325    0.0000 H   0  0  0  0  0  0  0  0  0  0  0  0
    7.6793   -1.5781    0.0000 H   0  0  0  0  0  0  0  0  0  0  0  0
    8.3695   -1.9766    0.0000 H   0  0  0  0  0  0  0  0  0  0  0  0
    6.8445    2.3101    0.0000 H   0  0  0  0  0  0  0  0  0  0  0  0
    6.1542    2.7087    0.0000 H   0  0  0  0  0  0  0  0  0  0  0  0
    9.8445   -1.1540    0.0000 H   0  0  0  0  0  0  0  0  0  0  0  0
    9.1542   -0.7554    0.0000 H   0  0  0  0  0  0  0  0  0  0  0  0
    9.1793   -2.4441    0.0000 H   0  0  0  0  0  0  0  0  0  0  0  0
    9.8695   -2.8426    0.0000 H   0  0  0  0  0  0  0  0  0  0  0  0
    4.8709    3.4921    0.0000 H   0  0  0  0  0  0  0  0  0  0  0  0
   10.9519   -3.6350    0.0000 H   0  0  0  0  0  0  0  0  0  0  0  0
   10.9519   -0.8291    0.0000 H   0  0  0  0  0  0  0  0  0  0  0  0
    2.8660    3.7181    0.0000 H   0  0  0  0  0  0  0  0  0  0  0  0
    2.8660    0.4781    0.0000 H   0  0  0  0  0  0  0  0  0  0  0  0
   12.5719   -3.6350    0.0000 H   0  0  0  0  0  0  0  0  0  0  0  0
   12.5719   -0.8291    0.0000 H   0  0  0  0  0  0  0  0  0  0  0  0
    1.4631    2.9081    0.0000 H   0  0  0  0  0  0  0  0  0  0  0  0
    1.4631    1.2881    0.0000 H   0  0  0  0  0  0  0  0  0  0  0  0
   13.7249   -3.4081    0.0000 H   0  0  0  0  0  0  0  0  0  0  0  0
   14.5719   -3.6350    0.0000 H   0  0  0  0  0  0  0  0  0  0  0  0
   14.7988   -2.7881    0.0000 H   0  0  0  0  0  0  0  0  0  0  0  0
  1 13  1  0  0  0  0
  1 17  1  0  0  0  0
  2 26  1  0  0  0  0
  2 27  1  0  0  0  0
  3  5  1  0  0  0  0
  3  6  1  0  0  0  0
  3  9  1  0  0  0  0
  4  7  1  0  0  0  0
  4  8  1  0  0  0  0
  4 10  1  0  0  0  0
  5  7  1  0  0  0  0
  5 28  1  0  0  0  0
  5 29  1  0  0  0  0
  6  8  1  0  0  0  0
  6 30  1  0  0  0  0
  6 31  1  0  0  0  0
  7 32  1  0  0  0  0
  7 33  1  0  0  0  0
  8 34  1  0  0  0  0
  8 35  1  0  0  0  0
  9 11  1  0  0  0  0
  9 36  1  0  0  0  0
  9 37  1  0  0  0  0
 10 13  1  0  0  0  0
 10 38  1  0  0  0  0
 10 39  1  0  0  0  0
 11 12  1  0  0  0  0
 11 40  1  0  0  0  0
 11 41  1  0  0  0  0
 12 14  1  0  0  0  0
 12 42  1  0  0  0  0
 12 43  1  0  0  0  0
 13 15  2  0  0  0  0
 14 18  2  0  0  0  0
 14 19  1  0  0  0  0
 15 16  1  0  0  0  0
 15 44  1  0  0  0  0
 16 17  1  0  0  0  0
 16 20  2  0  0  0  0
 17 21  2  0  0  0  0
 18 22  1  0  0  0  0
 18 45  1  0  0  0  0
 19 23  2  0  0  0  0
 19 46  1  0  0  0  0
 20 24  1  0  0  0  0
 20 47  1  0  0  0  0
 21 25  1  0  0  0  0
 21 48  1  0  0  0  0
 22 26  2  0  0  0  0
 22 49  1  0  0  0  0
 23 26  1  0  0  0  0
 23 50  1  0  0  0  0
 24 25  2  0  0  0  0
 24 51  1  0  0  0  0
 25 52  1  0  0  0  0
 27 53  1  0  0  0  0
 27 54  1  0  0  0  0
 27 55  1  0  0  0  0
M  END
> <PUBCHEM_COMPOUND_CID>
53483975

> <PUBCHEM_COMPOUND_CANONICALIZED>
1

> <PUBCHEM_CACTVS_COMPLEXITY>
430

> <PUBCHEM_CACTVS_HBOND_ACCEPTOR>
4

> <PUBCHEM_CACTVS_HBOND_DONOR>
0

> <PUBCHEM_CACTVS_ROTATABLE_BOND>
7

> <PUBCHEM_CACTVS_SUBSKEYS>
AAADceB7MAAAAAAAAAAAAAAAAAAAASAAAAA8YIAAAAAAAEgB9AAAHgAAAAAADATBmAYyBsMABECIAqBSAACCCAAkIAAIiAGODMgOZjKEtTuXOSjkwBGYqYeY2aKOIAAAAAAIAABAAAAAABAAAAAAAAAAAA==

> <PUBCHEM_IUPAC_OPENEYE_NAME>
1-(benzofuran-2-ylmethyl)-4-[3-(4-methoxyphenyl)propyl]piperazine

> <PUBCHEM_IUPAC_CAS_NAME>
1-(2-benzofuranylmethyl)-4-[3-(4-methoxyphenyl)propyl]piperazine

> <PUBCHEM_IUPAC_NAME_MARKUP>
1-(1-benzofuran-2-ylmethyl)-4-[3-(4-methoxyphenyl)propyl]piperazine

> <PUBCHEM_IUPAC_NAME>
1-(1-benzofuran-2-ylmethyl)-4-[3-(4-methoxyphenyl)propyl]piperazine

> <PUBCHEM_IUPAC_SYSTEMATIC_NAME>
1-(1-benzofuran-2-ylmethyl)-4-[3-(4-methoxyphenyl)propyl]piperazine

> <PUBCHEM_IUPAC_TRADITIONAL_NAME>
1-(benzofuran-2-ylmethyl)-4-[3-(4-methoxyphenyl)propyl]piperazine

> <PUBCHEM_IUPAC_INCHI>
InChI=1S/C23H28N2O2/c1-26-21-10-8-19(9-11-21)5-4-12-24-13-15-25(16-14-24)18-22-17-20-6-2-3-7-23(20)27-22/h2-3,6-11,17H,4-5,12-16,18H2,1H3

> <PUBCHEM_IUPAC_INCHIKEY>
MCDYBOWODFHEFX-UHFFFAOYSA-N

> <PUBCHEM_XLOGP3_AA>
4.3

> <PUBCHEM_EXACT_MASS>
364.215078140

> <PUBCHEM_MOLECULAR_FORMULA>
C23H28N2O2

> <PUBCHEM_MOLECULAR_WEIGHT>
364.5

> <PUBCHEM_OPENEYE_CAN_SMILES>
COC1=CC=C(C=C1)CCCN2CCN(CC2)CC3=CC4=CC=CC=C4O3

> <PUBCHEM_OPENEYE_ISO_SMILES>
COC1=CC=C(C=C1)CCCN2CCN(CC2)CC3=CC4=CC=CC=C4O3

> <PUBCHEM_CACTVS_TPSA>
28.8

> <PUBCHEM_MONOISOTOPIC_WEIGHT>
364.215078140

> <PUBCHEM_TOTAL_CHARGE>
0

> <PUBCHEM_HEAVY_ATOM_COUNT>
27

> <PUBCHEM_ATOM_DEF_STEREO_COUNT>
0

> <PUBCHEM_ATOM_UDEF_STEREO_COUNT>
0

> <PUBCHEM_BOND_DEF_STEREO_COUNT>
0

> <PUBCHEM_BOND_UDEF_STEREO_COUNT>
0

> <PUBCHEM_ISOTOPIC_ATOM_COUNT>
0

> <PUBCHEM_COMPONENT_COUNT>
1

> <PUBCHEM_CACTVS_TAUTO_COUNT>
-1

> <PUBCHEM_COORDINATE_TYPE>
1
5
255

> <PUBCHEM_BONDANNOTATIONS>
1  13  8
1  17  8
13  15  8
14  18  8
14  19  8
15  16  8
16  17  8
16  20  8
17  21  8
18  22  8
19  23  8
20  24  8
21  25  8
22  26  8
23  26  8
24  25  8

$$$$
