164626370
  -OEChem-09292322432D

 49 50  0     1  0  0  0  0  0999 V2000
   14.2045    0.4947    0.0000 S   0  0  0  0  0  0  0  0  0  0  0  0
    8.0622   -0.8100    0.0000 O   0  0  0  0  0  0  0  0  0  0  0  0
   10.6603    0.6900    0.0000 N   0  0  0  0  0  0  0  0  0  0  0  0
   14.2045   -1.1147    0.0000 N   0  0  0  0  0  0  0  0  0  0  0  0
    8.9282    0.6900    0.0000 N   0  0  0  0  0  0  0  0  0  0  0  0
    7.1962    0.6900    0.0000 N   0  0  0  0  0  0  0  0  0  0  0  0
   15.7882   -0.3100    0.0000 N   0  0  0  0  0  0  0  0  0  0  0  0
    9.7942   -0.8100    0.0000 N   0  0  0  0  0  0  0  0  0  0  0  0
   11.5263    0.1900    0.0000 C   0  0  3  0  0  0  0  0  0  0  0  0
   11.5263   -0.8100    0.0000 C   0  0  0  0  0  0  0  0  0  0  0  0
   12.3923    0.6900    0.0000 C   0  0  0  0  0  0  0  0  0  0  0  0
   12.3923   -1.3100    0.0000 C   0  0  0  0  0  0  0  0  0  0  0  0
   13.2583    0.1900    0.0000 C   0  0  0  0  0  0  0  0  0  0  0  0
   13.2583   -0.8100    0.0000 C   0  0  0  0  0  0  0  0  0  0  0  0
    4.5981    0.1900    0.0000 C   0  0  0  0  0  0  0  0  0  0  0  0
   14.7882   -0.3100    0.0000 C   0  0  0  0  0  0  0  0  0  0  0  0
    5.4641    0.6900    0.0000 C   0  0  0  0  0  0  0  0  0  0  0  0
    3.7320    0.6900    0.0000 C   0  0  0  0  0  0  0  0  0  0  0  0
    9.7942    0.1900    0.0000 C   0  0  0  0  0  0  0  0  0  0  0  0
    6.3301    0.1900    0.0000 C   0  0  0  0  0  0  0  0  0  0  0  0
    2.8660    0.1900    0.0000 C   0  0  0  0  0  0  0  0  0  0  0  0
    2.0000    0.6900    0.0000 C   0  0  0  0  0  0  0  0  0  0  0  0
    8.0622    0.1900    0.0000 C   0  0  0  0  0  0  0  0  0  0  0  0
   10.9893   -0.1200    0.0000 H   0  0  0  0  0  0  0  0  0  0  0  0
   10.9157   -0.7023    0.0000 H   0  0  0  0  0  0  0  0  0  0  0  0
   11.3142   -1.3926    0.0000 H   0  0  0  0  0  0  0  0  0  0  0  0
   12.7908    1.1650    0.0000 H   0  0  0  0  0  0  0  0  0  0  0  0
   11.9938    1.1650    0.0000 H   0  0  0  0  0  0  0  0  0  0  0  0
   11.9938   -1.7850    0.0000 H   0  0  0  0  0  0  0  0  0  0  0  0
   12.7908   -1.7850    0.0000 H   0  0  0  0  0  0  0  0  0  0  0  0
    4.1996   -0.2849    0.0000 H   0  0  0  0  0  0  0  0  0  0  0  0
    4.9966   -0.2849    0.0000 H   0  0  0  0  0  0  0  0  0  0  0  0
    5.8626    1.1650    0.0000 H   0  0  0  0  0  0  0  0  0  0  0  0
    5.0656    1.1650    0.0000 H   0  0  0  0  0  0  0  0  0  0  0  0
    4.1306    1.1650    0.0000 H   0  0  0  0  0  0  0  0  0  0  0  0
    3.3335    1.1650    0.0000 H   0  0  0  0  0  0  0  0  0  0  0  0
    5.9316   -0.2849    0.0000 H   0  0  0  0  0  0  0  0  0  0  0  0
    6.7287   -0.2849    0.0000 H   0  0  0  0  0  0  0  0  0  0  0  0
    2.4675   -0.2849    0.0000 H   0  0  0  0  0  0  0  0  0  0  0  0
    3.2646   -0.2849    0.0000 H   0  0  0  0  0  0  0  0  0  0  0  0
    7.1962    1.3100    0.0000 H   0  0  0  0  0  0  0  0  0  0  0  0
    8.9282    1.3100    0.0000 H   0  0  0  0  0  0  0  0  0  0  0  0
    2.3100    1.2269    0.0000 H   0  0  0  0  0  0  0  0  0  0  0  0
    1.4631    1.0000    0.0000 H   0  0  0  0  0  0  0  0  0  0  0  0
    1.6900    0.1531    0.0000 H   0  0  0  0  0  0  0  0  0  0  0  0
   16.0982   -0.8469    0.0000 H   0  0  0  0  0  0  0  0  0  0  0  0
   16.0982    0.2269    0.0000 H   0  0  0  0  0  0  0  0  0  0  0  0
    9.2573   -1.1200    0.0000 H   0  0  0  0  0  0  0  0  0  0  0  0
   10.3312   -1.1200    0.0000 H   0  0  0  0  0  0  0  0  0  0  0  0
  1 13  1  0  0  0  0
  1 16  1  0  0  0  0
  2 23  2  0  0  0  0
  3  9  1  0  0  0  0
  3 19  2  0  0  0  0
  4 14  1  0  0  0  0
  4 16  2  0  0  0  0
  5 19  1  0  0  0  0
  5 23  1  0  0  0  0
  5 42  1  0  0  0  0
  6 20  1  0  0  0  0
  6 23  1  0  0  0  0
  6 41  1  0  0  0  0
  7 16  1  0  0  0  0
  7 46  1  0  0  0  0
  7 47  1  0  0  0  0
  8 19  1  0  0  0  0
  8 48  1  0  0  0  0
  8 49  1  0  0  0  0
  9 10  1  0  0  0  0
  9 11  1  0  0  0  0
  9 24  1  0  0  0  0
 10 12  1  0  0  0  0
 10 25  1  0  0  0  0
 10 26  1  0  0  0  0
 11 13  1  0  0  0  0
 11 27  1  0  0  0  0
 11 28  1  0  0  0  0
 12 14  1  0  0  0  0
 12 29  1  0  0  0  0
 12 30  1  0  0  0  0
 13 14  2  0  0  0  0
 15 17  1  0  0  0  0
 15 18  1  0  0  0  0
 15 31  1  0  0  0  0
 15 32  1  0  0  0  0
 17 20  1  0  0  0  0
 17 33  1  0  0  0  0
 17 34  1  0  0  0  0
 18 21  1  0  0  0  0
 18 35  1  0  0  0  0
 18 36  1  0  0  0  0
 20 37  1  0  0  0  0
 20 38  1  0  0  0  0
 21 22  1  0  0  0  0
 21 39  1  0  0  0  0
 21 40  1  0  0  0  0
 22 43  1  0  0  0  0
 22 44  1  0  0  0  0
 22 45  1  0  0  0  0
M  END
> <PUBCHEM_COMPOUND_CID>
164626370

> <PUBCHEM_COMPOUND_CANONICALIZED>
1

> <PUBCHEM_CACTVS_COMPLEXITY>
419

> <PUBCHEM_CACTVS_HBOND_ACCEPTOR>
5

> <PUBCHEM_CACTVS_HBOND_DONOR>
4

> <PUBCHEM_CACTVS_ROTATABLE_BOND>
7

> <PUBCHEM_CACTVS_SUBSKEYS>
AAADceBzoABAAAAAAAAAAAAAAAAAAWAAAAAwAAAAAAAAAFgBgAAAHgQQAAAACCjBVgQDkRLIEAisAQRgdAAA8KlhCDkBGJQ4QAiAIAJgkAGEAAAolwJISCMQAAAAAAAAAAAAAAAAAQAAQAACAAAAAAAAAA==

> <PUBCHEM_IUPAC_OPENEYE_NAME>
1-[N'-(2-amino-4,5,6,7-tetrahydro-1,3-benzothiazol-6-yl)carbamimidoyl]-3-hexyl-urea

> <PUBCHEM_IUPAC_CAS_NAME>
1-[amino-[(2-amino-4,5,6,7-tetrahydro-1,3-benzothiazol-6-yl)imino]methyl]-3-hexylurea

> <PUBCHEM_IUPAC_NAME_MARKUP>
1-[<I>N</I>&apos;-(2-amino-4,5,6,7-tetrahydro-1,3-benzothiazol-6-yl)carbamimidoyl]-3-hexylurea

> <PUBCHEM_IUPAC_NAME>
1-[N'-(2-amino-4,5,6,7-tetrahydro-1,3-benzothiazol-6-yl)carbamimidoyl]-3-hexylurea

> <PUBCHEM_IUPAC_SYSTEMATIC_NAME>
1-[N'-(2-azanyl-4,5,6,7-tetrahydro-1,3-benzothiazol-6-yl)carbamimidoyl]-3-hexyl-urea

> <PUBCHEM_IUPAC_TRADITIONAL_NAME>
1-[N'-(2-amino-4,5,6,7-tetrahydro-1,3-benzothiazol-6-yl)amidino]-3-hexyl-urea

> <PUBCHEM_IUPAC_INCHI>
InChI=1S/C15H26N6OS/c1-2-3-4-5-8-18-15(22)21-13(16)19-10-6-7-11-12(9-10)23-14(17)20-11/h10H,2-9H2,1H3,(H2,17,20)(H4,16,18,19,21,22)

> <PUBCHEM_IUPAC_INCHIKEY>
FZTHGRYFMPGYHV-UHFFFAOYSA-N

> <PUBCHEM_XLOGP3_AA>
2.7

> <PUBCHEM_EXACT_MASS>
338.18888065

> <PUBCHEM_MOLECULAR_FORMULA>
C15H26N6OS

> <PUBCHEM_MOLECULAR_WEIGHT>
338.5

> <PUBCHEM_OPENEYE_CAN_SMILES>
CCCCCCNC(=O)NC(=NC1CCC2=C(C1)SC(=N2)N)N

> <PUBCHEM_OPENEYE_ISO_SMILES>
CCCCCCNC(=O)NC(=NC1CCC2=C(C1)SC(=N2)N)N

> <PUBCHEM_CACTVS_TPSA>
147

> <PUBCHEM_MONOISOTOPIC_WEIGHT>
338.18888065

> <PUBCHEM_TOTAL_CHARGE>
0

> <PUBCHEM_HEAVY_ATOM_COUNT>
23

> <PUBCHEM_ATOM_DEF_STEREO_COUNT>
0

> <PUBCHEM_ATOM_UDEF_STEREO_COUNT>
1

> <PUBCHEM_BOND_DEF_STEREO_COUNT>
0

> <PUBCHEM_BOND_UDEF_STEREO_COUNT>
0

> <PUBCHEM_ISOTOPIC_ATOM_COUNT>
0

> <PUBCHEM_COMPONENT_COUNT>
1

> <PUBCHEM_CACTVS_TAUTO_COUNT>
-1

> <PUBCHEM_COORDINATE_TYPE>
1
5
255

> <PUBCHEM_BONDANNOTATIONS>
1  13  8
1  16  8
13  14  8
9  3  3
4  14  8
4  16  8

$$$$
