16007816
  -OEChem-09292321582D

 52 55  0     1  0  0  0  0  0999 V2000
   10.4702   -1.0783    0.0000 S   0  0  3  0  0  0  0  0  0  0  0  0
   11.4041    2.0133    0.0000 O   0  0  0  0  0  0  0  0  0  0  0  0
   10.4702   -2.0783    0.0000 O   0  0  0  0  0  0  0  0  0  0  0  0
    6.4140    1.2245    0.0000 O   0  0  0  0  0  0  0  0  0  0  0  0
    9.9702    1.1123    0.0000 N   0  0  0  0  0  0  0  0  0  0  0  0
    5.8971   -0.4286    0.0000 N   0  0  0  0  0  0  0  0  0  0  0  0
    9.3467    0.3305    0.0000 C   0  0  0  0  0  0  0  0  0  0  0  0
    9.5692   -0.6444    0.0000 C   0  0  0  0  0  0  0  0  0  0  0  0
   11.5937    0.3305    0.0000 C   0  0  0  0  0  0  0  0  0  0  0  0
    9.5364    2.0133    0.0000 C   0  0  0  0  0  0  0  0  0  0  0  0
   11.3712   -0.6444    0.0000 C   0  0  0  0  0  0  0  0  0  0  0  0
   10.9702    1.1123    0.0000 C   0  0  0  0  0  0  0  0  0  0  0  0
    8.3562    0.6528    0.0000 C   0  0  0  0  0  0  0  0  0  0  0  0
    7.5872   -0.0497    0.0000 C   0  0  0  0  0  0  0  0  0  0  0  0
    8.8167   -1.3646    0.0000 C   0  0  0  0  0  0  0  0  0  0  0  0
    7.8190   -1.0652    0.0000 C   0  0  0  0  0  0  0  0  0  0  0  0
   12.5842    0.6528    0.0000 C   0  0  0  0  0  0  0  0  0  0  0  0
   12.1237   -1.3646    0.0000 C   0  0  0  0  0  0  0  0  0  0  0  0
   10.0997    2.8395    0.0000 C   0  0  0  0  0  0  0  0  0  0  0  0
    6.6328    0.2487    0.0000 C   0  0  0  0  0  0  0  0  0  0  0  0
    4.9427   -0.1302    0.0000 C   0  0  0  0  0  0  0  0  0  0  0  0
   13.3532   -0.0498    0.0000 C   0  0  0  0  0  0  0  0  0  0  0  0
   13.1214   -1.0653    0.0000 C   0  0  0  0  0  0  0  0  0  0  0  0
    4.2070   -0.8075    0.0000 C   0  0  0  0  0  0  0  0  0  0  0  0
    4.4258   -1.7833    0.0000 C   0  0  0  0  0  0  0  0  0  0  0  0
    3.2526   -0.5091    0.0000 C   0  0  0  0  0  0  0  0  0  0  0  0
    2.7357   -2.1622    0.0000 C   0  0  0  0  0  0  0  0  0  0  0  0
    3.6901   -2.4606    0.0000 C   0  0  0  0  0  0  0  0  0  0  0  0
    2.5169   -1.1864    0.0000 C   0  0  0  0  0  0  0  0  0  0  0  0
    2.0000   -2.8395    0.0000 C   0  0  0  0  0  0  0  0  0  0  0  0
    9.0925    2.4462    0.0000 H   0  0  0  0  0  0  0  0  0  0  0  0
    9.0330    1.6514    0.0000 H   0  0  0  0  0  0  0  0  0  0  0  0
    8.2253    1.2588    0.0000 H   0  0  0  0  0  0  0  0  0  0  0  0
    8.9616   -1.9674    0.0000 H   0  0  0  0  0  0  0  0  0  0  0  0
    7.3661   -1.4887    0.0000 H   0  0  0  0  0  0  0  0  0  0  0  0
   12.7152    1.2588    0.0000 H   0  0  0  0  0  0  0  0  0  0  0  0
   11.9788   -1.9674    0.0000 H   0  0  0  0  0  0  0  0  0  0  0  0
   10.6119    2.4903    0.0000 H   0  0  0  0  0  0  0  0  0  0  0  0
   10.4489    3.3518    0.0000 H   0  0  0  0  0  0  0  0  0  0  0  0
    9.5874    3.1888    0.0000 H   0  0  0  0  0  0  0  0  0  0  0  0
    5.2277    0.4204    0.0000 H   0  0  0  0  0  0  0  0  0  0  0  0
    4.4499    0.2461    0.0000 H   0  0  0  0  0  0  0  0  0  0  0  0
   13.9450    0.1352    0.0000 H   0  0  0  0  0  0  0  0  0  0  0  0
   13.5743   -1.4888    0.0000 H   0  0  0  0  0  0  0  0  0  0  0  0
    6.0328   -1.0336    0.0000 H   0  0  0  0  0  0  0  0  0  0  0  0
    5.0175   -1.9683    0.0000 H   0  0  0  0  0  0  0  0  0  0  0  0
    3.1170    0.0959    0.0000 H   0  0  0  0  0  0  0  0  0  0  0  0
    3.8257   -3.0656    0.0000 H   0  0  0  0  0  0  0  0  0  0  0  0
    1.9252   -1.0014    0.0000 H   0  0  0  0  0  0  0  0  0  0  0  0
    1.5800   -2.3834    0.0000 H   0  0  0  0  0  0  0  0  0  0  0  0
    1.5439   -3.2595    0.0000 H   0  0  0  0  0  0  0  0  0  0  0  0
    2.4200   -3.2956    0.0000 H   0  0  0  0  0  0  0  0  0  0  0  0
  1  3  2  0  0  0  0
  1  8  1  0  0  0  0
  1 11  1  0  0  0  0
  2 12  2  0  0  0  0
  4 20  2  0  0  0  0
  5  7  1  0  0  0  0
  5 10  1  0  0  0  0
  5 12  1  0  0  0  0
  6 20  1  0  0  0  0
  6 21  1  0  0  0  0
  6 45  1  0  0  0  0
  7  8  2  0  0  0  0
  7 13  1  0  0  0  0
  8 15  1  0  0  0  0
  9 11  1  0  0  0  0
  9 12  1  0  0  0  0
  9 17  2  0  0  0  0
 10 19  1  0  0  0  0
 10 31  1  0  0  0  0
 10 32  1  0  0  0  0
 11 18  2  0  0  0  0
 13 14  2  0  0  0  0
 13 33  1  0  0  0  0
 14 16  1  0  0  0  0
 14 20  1  0  0  0  0
 15 16  2  0  0  0  0
 15 34  1  0  0  0  0
 16 35  1  0  0  0  0
 17 22  1  0  0  0  0
 17 36  1  0  0  0  0
 18 23  1  0  0  0  0
 18 37  1  0  0  0  0
 19 38  1  0  0  0  0
 19 39  1  0  0  0  0
 19 40  1  0  0  0  0
 21 24  1  0  0  0  0
 21 41  1  0  0  0  0
 21 42  1  0  0  0  0
 22 23  2  0  0  0  0
 22 43  1  0  0  0  0
 23 44  1  0  0  0  0
 24 25  2  0  0  0  0
 24 26  1  0  0  0  0
 25 28  1  0  0  0  0
 25 46  1  0  0  0  0
 26 29  2  0  0  0  0
 26 47  1  0  0  0  0
 27 28  2  0  0  0  0
 27 29  1  0  0  0  0
 27 30  1  0  0  0  0
 28 48  1  0  0  0  0
 29 49  1  0  0  0  0
 30 50  1  0  0  0  0
 30 51  1  0  0  0  0
 30 52  1  0  0  0  0
M  END
> <PUBCHEM_COMPOUND_CID>
16007816

> <PUBCHEM_COMPOUND_CANONICALIZED>
1

> <PUBCHEM_CACTVS_COMPLEXITY>
661

> <PUBCHEM_CACTVS_HBOND_ACCEPTOR>
4

> <PUBCHEM_CACTVS_HBOND_DONOR>
1

> <PUBCHEM_CACTVS_ROTATABLE_BOND>
4

> <PUBCHEM_CACTVS_SUBSKEYS>
AAADceB7MABAAAAAAAAAAAAAAAAAAAAAAAAwYMAABYAAAAABUAAAHgQQAAAADAjB2AQywYPAAAqIAiVSUEDCAAAlChAIiJ0IZMgIIDLglZGEIQhghgDoyYcciACOUAAAQAAEAQCgAACAAAgCAAAAAAAAAA==

> <PUBCHEM_IUPAC_OPENEYE_NAME>
5-ethyl-6,11-dioxo-N-(p-tolylmethyl)benzo[b][1,4]benzothiazepine-3-carboxamide

> <PUBCHEM_IUPAC_CAS_NAME>
5-ethyl-N-[(4-methylphenyl)methyl]-6,11-dioxo-3-benzo[b][1,4]benzothiazepinecarboxamide

> <PUBCHEM_IUPAC_NAME_MARKUP>
5-ethyl-<I>N</I>-[(4-methylphenyl)methyl]-6,11-dioxobenzo[b][1,4]benzothiazepine-3-carboxamide

> <PUBCHEM_IUPAC_NAME>
5-ethyl-N-[(4-methylphenyl)methyl]-6,11-dioxobenzo[b][1,4]benzothiazepine-3-carboxamide

> <PUBCHEM_IUPAC_SYSTEMATIC_NAME>
5-ethyl-N-[(4-methylphenyl)methyl]-6,11-bis(oxidanylidene)benzo[b][1,4]benzothiazepine-3-carboxamide

> <PUBCHEM_IUPAC_TRADITIONAL_NAME>
5-ethyl-6,11-diketo-N-(4-methylbenzyl)benzo[b][1,4]benzothiazepine-3-carboxamide

> <PUBCHEM_IUPAC_INCHI>
InChI=1S/C24H22N2O3S/c1-3-26-20-14-18(23(27)25-15-17-10-8-16(2)9-11-17)12-13-22(20)30(29)21-7-5-4-6-19(21)24(26)28/h4-14H,3,15H2,1-2H3,(H,25,27)

> <PUBCHEM_IUPAC_INCHIKEY>
ORMDPKWYQLPSFI-UHFFFAOYSA-N

> <PUBCHEM_XLOGP3_AA>
3.3

> <PUBCHEM_EXACT_MASS>
418.13511374

> <PUBCHEM_MOLECULAR_FORMULA>
C24H22N2O3S

> <PUBCHEM_MOLECULAR_WEIGHT>
418.5

> <PUBCHEM_OPENEYE_CAN_SMILES>
CCN1C2=C(C=CC(=C2)C(=O)NCC3=CC=C(C=C3)C)S(=O)C4=CC=CC=C4C1=O

> <PUBCHEM_OPENEYE_ISO_SMILES>
CCN1C2=C(C=CC(=C2)C(=O)NCC3=CC=C(C=C3)C)S(=O)C4=CC=CC=C4C1=O

> <PUBCHEM_CACTVS_TPSA>
85.7

> <PUBCHEM_MONOISOTOPIC_WEIGHT>
418.13511374

> <PUBCHEM_TOTAL_CHARGE>
0

> <PUBCHEM_HEAVY_ATOM_COUNT>
30

> <PUBCHEM_ATOM_DEF_STEREO_COUNT>
0

> <PUBCHEM_ATOM_UDEF_STEREO_COUNT>
1

> <PUBCHEM_BOND_DEF_STEREO_COUNT>
0

> <PUBCHEM_BOND_UDEF_STEREO_COUNT>
0

> <PUBCHEM_ISOTOPIC_ATOM_COUNT>
0

> <PUBCHEM_COMPONENT_COUNT>
1

> <PUBCHEM_CACTVS_TAUTO_COUNT>
-1

> <PUBCHEM_COORDINATE_TYPE>
1
5
255

> <PUBCHEM_BONDANNOTATIONS>
1  11  3
11  18  8
13  14  8
14  16  8
15  16  8
17  22  8
18  23  8
22  23  8
24  25  8
24  26  8
25  28  8
26  29  8
27  28  8
27  29  8
7  13  8
7  8  8
8  15  8
9  11  8
9  17  8

$$$$
