49783041
  -OEChem-09292322312D

 92 98  0     0  0  0  0  0  0999 V2000
    4.2384    3.7711    0.0000 O   0  0  0  0  0  0  0  0  0  0  0  0
    5.2232   -1.5988    0.0000 N   0  0  0  0  0  0  0  0  0  0  0  0
    4.2232   -3.3308    0.0000 N   0  0  0  0  0  0  0  0  0  0  0  0
    5.7232    2.7314    0.0000 N   0  0  0  0  0  0  0  0  0  0  0  0
    4.2232   -1.5988    0.0000 C   0  0  0  0  0  0  0  0  0  0  0  0
    5.7232   -2.4648    0.0000 C   0  0  0  0  0  0  0  0  0  0  0  0
    3.7232   -2.4648    0.0000 C   0  0  0  0  0  0  0  0  0  0  0  0
    5.2232   -3.3308    0.0000 C   0  0  0  0  0  0  0  0  0  0  0  0
    5.7232   -0.7327    0.0000 C   0  0  0  0  0  0  0  0  0  0  0  0
    3.7232   -4.1968    0.0000 C   0  0  0  0  0  0  0  0  0  0  0  0
    5.2232    0.1333    0.0000 C   0  0  0  0  0  0  0  0  0  0  0  0
    2.8616   -3.6994    0.0000 C   0  0  0  0  0  0  0  0  0  0  0  0
    3.7232   -5.1918    0.0000 C   0  0  0  0  0  0  0  0  0  0  0  0
    5.7232    0.9993    0.0000 C   0  0  0  0  0  0  0  0  0  0  0  0
    3.7232   -3.2019    0.0000 C   0  0  0  0  0  0  0  0  0  0  0  0
    2.8616   -5.6892    0.0000 C   0  0  0  0  0  0  0  0  0  0  0  0
    2.0000   -4.1968    0.0000 C   0  0  0  0  0  0  0  0  0  0  0  0
    4.7637   -3.1798    0.0000 C   0  0  0  0  0  0  0  0  0  0  0  0
    3.7232   -6.1867    0.0000 C   0  0  0  0  0  0  0  0  0  0  0  0
    2.0000   -5.1918    0.0000 C   0  0  0  0  0  0  0  0  0  0  0  0
    5.2232    1.8653    0.0000 C   0  0  0  0  0  0  0  0  0  0  0  0
    4.7637   -6.1646    0.0000 C   0  0  0  0  0  0  0  0  0  0  0  0
    5.6253   -3.6773    0.0000 C   0  0  0  0  0  0  0  0  0  0  0  0
    5.6253   -5.6671    0.0000 C   0  0  0  0  0  0  0  0  0  0  0  0
    4.7637   -4.1747    0.0000 C   0  0  0  0  0  0  0  0  0  0  0  0
    6.4869   -4.1747    0.0000 C   0  0  0  0  0  0  0  0  0  0  0  0
    4.7637   -5.1696    0.0000 C   0  0  0  0  0  0  0  0  0  0  0  0
    6.4869   -5.1696    0.0000 C   0  0  0  0  0  0  0  0  0  0  0  0
    5.7232    4.4634    0.0000 C   0  0  0  0  0  0  0  0  0  0  0  0
    5.2232    3.5974    0.0000 C   0  0  0  0  0  0  0  0  0  0  0  0
    6.7182    4.4634    0.0000 C   0  0  0  0  0  0  0  0  0  0  0  0
    6.2207    3.6018    0.0000 C   0  0  0  0  0  0  0  0  0  0  0  0
    5.7232    6.1867    0.0000 C   0  0  0  0  0  0  0  0  0  0  0  0
    5.3307    3.0624    0.0000 C   0  0  0  0  0  0  0  0  0  0  0  0
    4.7283    6.1867    0.0000 C   0  0  0  0  0  0  0  0  0  0  0  0
    5.2258    5.3250    0.0000 C   0  0  0  0  0  0  0  0  0  0  0  0
    3.8384    5.6473    0.0000 C   0  0  0  0  0  0  0  0  0  0  0  0
    7.2156    5.3250    0.0000 C   0  0  0  0  0  0  0  0  0  0  0  0
    4.3358    3.0624    0.0000 C   0  0  0  0  0  0  0  0  0  0  0  0
    6.7182    6.1867    0.0000 C   0  0  0  0  0  0  0  0  0  0  0  0
    3.3409    4.7857    0.0000 C   0  0  0  0  0  0  0  0  0  0  0  0
    4.8333    3.9241    0.0000 C   0  0  0  0  0  0  0  0  0  0  0  0
    3.3409    3.0624    0.0000 C   0  0  0  0  0  0  0  0  0  0  0  0
    4.3358    4.7857    0.0000 C   0  0  0  0  0  0  0  0  0  0  0  0
    2.8434    3.9241    0.0000 C   0  0  0  0  0  0  0  0  0  0  0  0
    4.3309   -0.9882    0.0000 H   0  0  0  0  0  0  0  0  0  0  0  0
    3.6406   -1.3867    0.0000 H   0  0  0  0  0  0  0  0  0  0  0  0
    6.1982   -2.8633    0.0000 H   0  0  0  0  0  0  0  0  0  0  0  0
    6.1982   -2.0662    0.0000 H   0  0  0  0  0  0  0  0  0  0  0  0
    3.2483   -2.0663    0.0000 H   0  0  0  0  0  0  0  0  0  0  0  0
    3.2483   -2.8633    0.0000 H   0  0  0  0  0  0  0  0  0  0  0  0
    5.1156   -3.9414    0.0000 H   0  0  0  0  0  0  0  0  0  0  0  0
    5.8059   -3.5429    0.0000 H   0  0  0  0  0  0  0  0  0  0  0  0
    6.1982   -1.1313    0.0000 H   0  0  0  0  0  0  0  0  0  0  0  0
    6.1982   -0.3342    0.0000 H   0  0  0  0  0  0  0  0  0  0  0  0
    4.7483    0.5318    0.0000 H   0  0  0  0  0  0  0  0  0  0  0  0
    4.7483   -0.2652    0.0000 H   0  0  0  0  0  0  0  0  0  0  0  0
    4.2602   -5.5018    0.0000 H   0  0  0  0  0  0  0  0  0  0  0  0
    6.1982    0.6008    0.0000 H   0  0  0  0  0  0  0  0  0  0  0  0
    6.1982    1.3978    0.0000 H   0  0  0  0  0  0  0  0  0  0  0  0
    3.9270   -2.6164    0.0000 H   0  0  0  0  0  0  0  0  0  0  0  0
    3.8901   -3.7990    0.0000 H   0  0  0  0  0  0  0  0  0  0  0  0
    1.4631   -3.8868    0.0000 H   0  0  0  0  0  0  0  0  0  0  0  0
    5.2358   -2.7779    0.0000 H   0  0  0  0  0  0  0  0  0  0  0  0
    4.6096   -3.7804    0.0000 H   0  0  0  0  0  0  0  0  0  0  0  0
    3.2511   -6.5886    0.0000 H   0  0  0  0  0  0  0  0  0  0  0  0
    3.8774   -5.5861    0.0000 H   0  0  0  0  0  0  0  0  0  0  0  0
    1.4631   -5.5018    0.0000 H   0  0  0  0  0  0  0  0  0  0  0  0
    4.7483    2.2639    0.0000 H   0  0  0  0  0  0  0  0  0  0  0  0
    4.7483    1.4668    0.0000 H   0  0  0  0  0  0  0  0  0  0  0  0
    4.5599   -6.7501    0.0000 H   0  0  0  0  0  0  0  0  0  0  0  0
    4.5968   -5.5674    0.0000 H   0  0  0  0  0  0  0  0  0  0  0  0
    6.3432    2.7314    0.0000 H   0  0  0  0  0  0  0  0  0  0  0  0
    4.2267   -3.8647    0.0000 H   0  0  0  0  0  0  0  0  0  0  0  0
    7.0238   -3.8647    0.0000 H   0  0  0  0  0  0  0  0  0  0  0  0
    4.2267   -5.4796    0.0000 H   0  0  0  0  0  0  0  0  0  0  0  0
    7.0238   -5.4796    0.0000 H   0  0  0  0  0  0  0  0  0  0  0  0
    6.3370    2.9928    0.0000 H   0  0  0  0  0  0  0  0  0  0  0  0
    5.7777    4.0355    0.0000 H   0  0  0  0  0  0  0  0  0  0  0  0
    5.1228    2.4784    0.0000 H   0  0  0  0  0  0  0  0  0  0  0  0
    5.1639    3.6596    0.0000 H   0  0  0  0  0  0  0  0  0  0  0  0
    4.9362    6.7708    0.0000 H   0  0  0  0  0  0  0  0  0  0  0  0
    4.8951    5.5895    0.0000 H   0  0  0  0  0  0  0  0  0  0  0  0
    4.6058    5.3250    0.0000 H   0  0  0  0  0  0  0  0  0  0  0  0
    3.7220    6.2563    0.0000 H   0  0  0  0  0  0  0  0  0  0  0  0
    4.2814    5.2136    0.0000 H   0  0  0  0  0  0  0  0  0  0  0  0
    7.8356    5.3250    0.0000 H   0  0  0  0  0  0  0  0  0  0  0  0
    7.0282    6.7236    0.0000 H   0  0  0  0  0  0  0  0  0  0  0  0
    5.4533    3.9241    0.0000 H   0  0  0  0  0  0  0  0  0  0  0  0
    3.0309    2.5255    0.0000 H   0  0  0  0  0  0  0  0  0  0  0  0
    4.6458    5.3226    0.0000 H   0  0  0  0  0  0  0  0  0  0  0  0
    2.2234    3.9241    0.0000 H   0  0  0  0  0  0  0  0  0  0  0  0
  1 30  2  0  0  0  0
  2  5  1  0  0  0  0
  2  6  1  0  0  0  0
  2  9  1  0  0  0  0
  3  7  1  0  0  0  0
  3  8  1  0  0  0  0
  3 10  1  0  0  0  0
  4 21  1  0  0  0  0
  4 30  1  0  0  0  0
  4 73  1  0  0  0  0
  5  7  1  0  0  0  0
  5 46  1  0  0  0  0
  5 47  1  0  0  0  0
  6  8  1  0  0  0  0
  6 48  1  0  0  0  0
  6 49  1  0  0  0  0
  7 50  1  0  0  0  0
  7 51  1  0  0  0  0
  8 52  1  0  0  0  0
  8 53  1  0  0  0  0
  9 11  1  0  0  0  0
  9 54  1  0  0  0  0
  9 55  1  0  0  0  0
 10 12  2  0  0  0  0
 10 13  1  0  0  0  0
 11 14  1  0  0  0  0
 11 56  1  0  0  0  0
 11 57  1  0  0  0  0
 12 15  1  0  0  0  0
 12 17  1  0  0  0  0
 13 16  2  0  0  0  0
 13 58  1  0  0  0  0
 14 21  1  0  0  0  0
 14 59  1  0  0  0  0
 14 60  1  0  0  0  0
 15 18  1  0  0  0  0
 15 61  1  0  0  0  0
 15 62  1  0  0  0  0
 16 19  1  0  0  0  0
 16 20  1  0  0  0  0
 17 20  2  0  0  0  0
 17 63  1  0  0  0  0
 18 23  1  0  0  0  0
 18 64  1  0  0  0  0
 18 65  1  0  0  0  0
 19 22  1  0  0  0  0
 19 66  1  0  0  0  0
 19 67  1  0  0  0  0
 20 68  1  0  0  0  0
 21 69  1  0  0  0  0
 21 70  1  0  0  0  0
 22 24  1  0  0  0  0
 22 71  1  0  0  0  0
 22 72  1  0  0  0  0
 23 25  2  0  0  0  0
 23 26  1  0  0  0  0
 24 27  2  0  0  0  0
 24 28  1  0  0  0  0
 25 27  1  0  0  0  0
 25 74  1  0  0  0  0
 26 28  2  0  0  0  0
 26 75  1  0  0  0  0
 27 76  1  0  0  0  0
 28 77  1  0  0  0  0
 29 30  1  0  0  0  0
 29 31  2  0  0  0  0
 29 36  1  0  0  0  0
 31 32  1  0  0  0  0
 31 38  1  0  0  0  0
 32 34  1  0  0  0  0
 32 78  1  0  0  0  0
 32 79  1  0  0  0  0
 33 35  1  0  0  0  0
 33 36  2  0  0  0  0
 33 40  1  0  0  0  0
 34 39  1  0  0  0  0
 34 80  1  0  0  0  0
 34 81  1  0  0  0  0
 35 37  1  0  0  0  0
 35 82  1  0  0  0  0
 35 83  1  0  0  0  0
 36 84  1  0  0  0  0
 37 41  1  0  0  0  0
 37 85  1  0  0  0  0
 37 86  1  0  0  0  0
 38 40  2  0  0  0  0
 38 87  1  0  0  0  0
 39 42  2  0  0  0  0
 39 43  1  0  0  0  0
 40 88  1  0  0  0  0
 41 44  2  0  0  0  0
 41 45  1  0  0  0  0
 42 44  1  0  0  0  0
 42 89  1  0  0  0  0
 43 45  2  0  0  0  0
 43 90  1  0  0  0  0
 44 91  1  0  0  0  0
 45 92  1  0  0  0  0
M  END
> <PUBCHEM_COMPOUND_CID>
49783041

> <PUBCHEM_COMPOUND_CANONICALIZED>
1

> <PUBCHEM_CACTVS_COMPLEXITY>
898

> <PUBCHEM_CACTVS_HBOND_ACCEPTOR>
3

> <PUBCHEM_CACTVS_HBOND_DONOR>
1

> <PUBCHEM_CACTVS_ROTATABLE_BOND>
7

> <PUBCHEM_CACTVS_SUBSKEYS>
AAADcfB/IAAAAAAAAAAAAAAAAAAAAAAAAAA8YMGCAAAAAAABVAAAHgAQAAAADAjBmAQwwIPAAACIAiVSUACCAAAlAgAIiIEIZMgIYDLAlZGUIQhglgDIyYcYiMCOwAACQAASAACAAASAACQAAAAAAAAAAA==

> <PUBCHEM_IUPAC_OPENEYE_NAME>
N-[4-[4-(5-tricyclo[8.2.2.24,7]hexadeca-1(13),4,6,10(14),11,15-hexaenyl)piperazin-1-yl]butyl]tricyclo[8.2.2.24,7]hexadeca-1(13),4,6,10(14),11,15-hexaene-5-carboxamide

> <PUBCHEM_IUPAC_CAS_NAME>
N-[4-[4-(5-tricyclo[8.2.2.24,7]hexadeca-1(13),4,6,10(14),11,15-hexaenyl)-1-piperazinyl]butyl]-5-tricyclo[8.2.2.24,7]hexadeca-1(13),4,6,10(14),11,15-hexaenecarboxamide

> <PUBCHEM_IUPAC_NAME_MARKUP>
<I>N</I>-[4-[4-(5-tricyclo[8.2.2.2<SUP>4,7</SUP>]hexadeca-1(13),4,6,10(14),11,15-hexaenyl)piperazin-1-yl]butyl]tricyclo[8.2.2.2<SUP>4,7</SUP>]hexadeca-1(13),4,6,10(14),11,15-hexaene-5-carboxamide

> <PUBCHEM_IUPAC_NAME>
N-[4-[4-(5-tricyclo[8.2.2.24,7]hexadeca-1(13),4,6,10(14),11,15-hexaenyl)piperazin-1-yl]butyl]tricyclo[8.2.2.24,7]hexadeca-1(13),4,6,10(14),11,15-hexaene-5-carboxamide

> <PUBCHEM_IUPAC_SYSTEMATIC_NAME>
N-[4-[4-(5-tricyclo[8.2.2.24,7]hexadeca-1(13),4,6,10(14),11,15-hexaenyl)piperazin-1-yl]butyl]tricyclo[8.2.2.24,7]hexadeca-1(13),4,6,10(14),11,15-hexaene-5-carboxamide

> <PUBCHEM_IUPAC_TRADITIONAL_NAME>
N-[4-[4-(5-tricyclo[8.2.2.24,7]hexadeca-1(13),4,6,10(14),11,15-hexaenyl)piperazino]butyl]tricyclo[8.2.2.24,7]hexadeca-1(13),4,6,10(14),11,15-hexaene-5-carboxamide

> <PUBCHEM_IUPAC_INCHI>
InChI=1S/C41H47N3O/c45-41(39-29-35-13-11-31-3-7-33(8-4-31)15-19-37(39)20-17-35)42-23-1-2-24-43-25-27-44(28-26-43)40-30-36-14-12-32-5-9-34(10-6-32)16-21-38(40)22-18-36/h3-10,17-18,20,22,29-30H,1-2,11-16,19,21,23-28H2,(H,42,45)

> <PUBCHEM_IUPAC_INCHIKEY>
MAMYYNBMHYGSHM-UHFFFAOYSA-N

> <PUBCHEM_XLOGP3_AA>
8.6

> <PUBCHEM_EXACT_MASS>
597.37191313

> <PUBCHEM_MOLECULAR_FORMULA>
C41H47N3O

> <PUBCHEM_MOLECULAR_WEIGHT>
597.8

> <PUBCHEM_OPENEYE_CAN_SMILES>
C1CC2=CC(=C(CCC3=CC=C1C=C3)C=C2)C(=O)NCCCCN4CCN(CC4)C5=C6CCC7=CC=C(CCC(=C5)C=C6)C=C7

> <PUBCHEM_OPENEYE_ISO_SMILES>
C1CC2=CC(=C(CCC3=CC=C1C=C3)C=C2)C(=O)NCCCCN4CCN(CC4)C5=C6CCC7=CC=C(CCC(=C5)C=C6)C=C7

> <PUBCHEM_CACTVS_TPSA>
35.6

> <PUBCHEM_MONOISOTOPIC_WEIGHT>
597.37191313

> <PUBCHEM_TOTAL_CHARGE>
0

> <PUBCHEM_HEAVY_ATOM_COUNT>
45

> <PUBCHEM_ATOM_DEF_STEREO_COUNT>
0

> <PUBCHEM_ATOM_UDEF_STEREO_COUNT>
0

> <PUBCHEM_BOND_DEF_STEREO_COUNT>
0

> <PUBCHEM_BOND_UDEF_STEREO_COUNT>
0

> <PUBCHEM_ISOTOPIC_ATOM_COUNT>
0

> <PUBCHEM_COMPONENT_COUNT>
1

> <PUBCHEM_CACTVS_TAUTO_COUNT>
-1

> <PUBCHEM_COORDINATE_TYPE>
1
5
255

> <PUBCHEM_BONDANNOTATIONS>
10  12  8
10  13  8
12  17  8
13  16  8
16  20  8
17  20  8
23  25  8
23  26  8
24  27  8
24  28  8
25  27  8
26  28  8
29  31  8
29  36  8
31  38  8
33  36  8
33  40  8
38  40  8
39  42  8
39  43  8
41  44  8
41  45  8
42  44  8
43  45  8

$$$$
