44436732
  -OEChem-09292322252D

 71 75  0     1  0  0  0  0  0999 V2000
    4.6783    0.4256    0.0000 S   0  0  0  0  0  0  0  0  0  0  0  0
    6.7619    2.0963    0.0000 O   0  0  0  0  0  0  0  0  0  0  0  0
   12.9525   -0.8678    0.0000 N   0  0  3  0  0  0  0  0  0  0  0  0
   10.7619   -1.3678    0.0000 N   0  0  3  0  0  0  0  0  0  0  0  0
    6.7619    0.3643    0.0000 N   0  0  0  0  0  0  0  0  0  0  0  0
   12.1707   -0.2443    0.0000 C   0  0  0  0  0  0  0  0  0  0  0  0
   12.9525   -1.8678    0.0000 C   0  0  0  0  0  0  0  0  0  0  0  0
   11.1958   -0.4668    0.0000 C   0  0  0  0  0  0  0  0  0  0  0  0
   11.1958   -2.2687    0.0000 C   0  0  0  0  0  0  0  0  0  0  0  0
   12.1707   -2.4913    0.0000 C   0  0  0  0  0  0  0  0  0  0  0  0
   13.8535   -0.4339    0.0000 C   0  0  0  0  0  0  0  0  0  0  0  0
    9.7619   -1.3678    0.0000 C   0  0  0  0  0  0  0  0  0  0  0  0
    9.2619   -0.5017    0.0000 C   0  0  0  0  0  0  0  0  0  0  0  0
   14.6797   -0.9972    0.0000 C   0  0  0  0  0  0  0  0  0  0  0  0
   13.9282    0.5633    0.0000 C   0  0  0  0  0  0  0  0  0  0  0  0
    8.2619   -0.5017    0.0000 C   0  0  0  0  0  0  0  0  0  0  0  0
   15.5807   -0.5633    0.0000 C   0  0  0  0  0  0  0  0  0  0  0  0
   13.1020    1.1266    0.0000 C   0  0  0  0  0  0  0  0  0  0  0  0
   14.6050   -1.9944    0.0000 C   0  0  0  0  0  0  0  0  0  0  0  0
   14.8292    0.9972    0.0000 C   0  0  0  0  0  0  0  0  0  0  0  0
    7.7619    0.3643    0.0000 C   0  0  0  0  0  0  0  0  0  0  0  0
   16.4069   -1.1266    0.0000 C   0  0  0  0  0  0  0  0  0  0  0  0
   13.1767    2.1238    0.0000 C   0  0  0  0  0  0  0  0  0  0  0  0
   15.4312   -2.5577    0.0000 C   0  0  0  0  0  0  0  0  0  0  0  0
   14.9039    1.9944    0.0000 C   0  0  0  0  0  0  0  0  0  0  0  0
   16.3322   -2.1238    0.0000 C   0  0  0  0  0  0  0  0  0  0  0  0
   14.0777    2.5577    0.0000 C   0  0  0  0  0  0  0  0  0  0  0  0
    6.2619    1.2303    0.0000 C   0  0  0  0  0  0  0  0  0  0  0  0
    5.2619    1.2303    0.0000 C   0  0  0  0  0  0  0  0  0  0  0  0
    4.6783    2.0350    0.0000 C   0  0  0  0  0  0  0  0  0  0  0  0
    3.7320    1.7303    0.0000 C   0  0  0  0  0  0  0  0  0  0  0  0
    3.7320    0.7303    0.0000 C   0  0  0  0  0  0  0  0  0  0  0  0
    2.8660    2.2303    0.0000 C   0  0  0  0  0  0  0  0  0  0  0  0
    2.8660    0.2303    0.0000 C   0  0  0  0  0  0  0  0  0  0  0  0
    2.0000    1.7303    0.0000 C   0  0  0  0  0  0  0  0  0  0  0  0
    2.0000    0.7303    0.0000 C   0  0  0  0  0  0  0  0  0  0  0  0
   12.6554    0.1423    0.0000 H   0  0  0  0  0  0  0  0  0  0  0  0
   11.9017    0.3143    0.0000 H   0  0  0  0  0  0  0  0  0  0  0  0
   13.2215   -2.4264    0.0000 H   0  0  0  0  0  0  0  0  0  0  0  0
   13.5570   -1.7298    0.0000 H   0  0  0  0  0  0  0  0  0  0  0  0
   11.1958    0.1532    0.0000 H   0  0  0  0  0  0  0  0  0  0  0  0
   10.5913   -0.3288    0.0000 H   0  0  0  0  0  0  0  0  0  0  0  0
   10.5913   -2.4067    0.0000 H   0  0  0  0  0  0  0  0  0  0  0  0
   11.1958   -2.8887    0.0000 H   0  0  0  0  0  0  0  0  0  0  0  0
   11.9017   -3.0499    0.0000 H   0  0  0  0  0  0  0  0  0  0  0  0
   12.6554   -2.8778    0.0000 H   0  0  0  0  0  0  0  0  0  0  0  0
   13.3412   -0.0846    0.0000 H   0  0  0  0  0  0  0  0  0  0  0  0
    9.1793   -1.5798    0.0000 H   0  0  0  0  0  0  0  0  0  0  0  0
    9.8695   -1.9784    0.0000 H   0  0  0  0  0  0  0  0  0  0  0  0
    9.8445   -0.2897    0.0000 H   0  0  0  0  0  0  0  0  0  0  0  0
    9.1542    0.1088    0.0000 H   0  0  0  0  0  0  0  0  0  0  0  0
    7.6793   -0.7138    0.0000 H   0  0  0  0  0  0  0  0  0  0  0  0
    8.3695   -1.1123    0.0000 H   0  0  0  0  0  0  0  0  0  0  0  0
   15.6270    0.0549    0.0000 H   0  0  0  0  0  0  0  0  0  0  0  0
   12.5434    0.8576    0.0000 H   0  0  0  0  0  0  0  0  0  0  0  0
   14.0464   -2.2634    0.0000 H   0  0  0  0  0  0  0  0  0  0  0  0
   15.3415    0.6479    0.0000 H   0  0  0  0  0  0  0  0  0  0  0  0
    8.3445    0.5763    0.0000 H   0  0  0  0  0  0  0  0  0  0  0  0
    7.6542    0.9749    0.0000 H   0  0  0  0  0  0  0  0  0  0  0  0
   16.9655   -0.8576    0.0000 H   0  0  0  0  0  0  0  0  0  0  0  0
   12.6644    2.4731    0.0000 H   0  0  0  0  0  0  0  0  0  0  0  0
   15.3849   -3.1760    0.0000 H   0  0  0  0  0  0  0  0  0  0  0  0
   15.4625    2.2634    0.0000 H   0  0  0  0  0  0  0  0  0  0  0  0
    6.4519   -0.1727    0.0000 H   0  0  0  0  0  0  0  0  0  0  0  0
   16.8445   -2.4731    0.0000 H   0  0  0  0  0  0  0  0  0  0  0  0
   14.1240    3.1760    0.0000 H   0  0  0  0  0  0  0  0  0  0  0  0
    4.8709    2.6244    0.0000 H   0  0  0  0  0  0  0  0  0  0  0  0
    2.8660    2.8503    0.0000 H   0  0  0  0  0  0  0  0  0  0  0  0
    2.8660   -0.3897    0.0000 H   0  0  0  0  0  0  0  0  0  0  0  0
    1.4631    2.0403    0.0000 H   0  0  0  0  0  0  0  0  0  0  0  0
    1.4631    0.4203    0.0000 H   0  0  0  0  0  0  0  0  0  0  0  0
  1 29  1  0  0  0  0
  1 32  1  0  0  0  0
  2 28  2  0  0  0  0
  3  6  1  0  0  0  0
  3  7  1  0  0  0  0
  3 11  1  0  0  0  0
  4  8  1  0  0  0  0
  4  9  1  0  0  0  0
  4 12  1  0  0  0  0
  5 21  1  0  0  0  0
  5 28  1  0  0  0  0
  5 64  1  0  0  0  0
  6  8  1  0  0  0  0
  6 37  1  0  0  0  0
  6 38  1  0  0  0  0
  7 10  1  0  0  0  0
  7 39  1  0  0  0  0
  7 40  1  0  0  0  0
  8 41  1  0  0  0  0
  8 42  1  0  0  0  0
  9 10  1  0  0  0  0
  9 43  1  0  0  0  0
  9 44  1  0  0  0  0
 10 45  1  0  0  0  0
 10 46  1  0  0  0  0
 11 14  1  0  0  0  0
 11 15  1  0  0  0  0
 11 47  1  0  0  0  0
 12 13  1  0  0  0  0
 12 48  1  0  0  0  0
 12 49  1  0  0  0  0
 13 16  1  0  0  0  0
 13 50  1  0  0  0  0
 13 51  1  0  0  0  0
 14 17  2  0  0  0  0
 14 19  1  0  0  0  0
 15 18  2  0  0  0  0
 15 20  1  0  0  0  0
 16 21  1  0  0  0  0
 16 52  1  0  0  0  0
 16 53  1  0  0  0  0
 17 22  1  0  0  0  0
 17 54  1  0  0  0  0
 18 23  1  0  0  0  0
 18 55  1  0  0  0  0
 19 24  2  0  0  0  0
 19 56  1  0  0  0  0
 20 25  2  0  0  0  0
 20 57  1  0  0  0  0
 21 58  1  0  0  0  0
 21 59  1  0  0  0  0
 22 26  2  0  0  0  0
 22 60  1  0  0  0  0
 23 27  2  0  0  0  0
 23 61  1  0  0  0  0
 24 26  1  0  0  0  0
 24 62  1  0  0  0  0
 25 27  1  0  0  0  0
 25 63  1  0  0  0  0
 26 65  1  0  0  0  0
 27 66  1  0  0  0  0
 28 29  1  0  0  0  0
 29 30  2  0  0  0  0
 30 31  1  0  0  0  0
 30 67  1  0  0  0  0
 31 32  1  0  0  0  0
 31 33  2  0  0  0  0
 32 34  2  0  0  0  0
 33 35  1  0  0  0  0
 33 68  1  0  0  0  0
 34 36  1  0  0  0  0
 34 69  1  0  0  0  0
 35 36  2  0  0  0  0
 35 70  1  0  0  0  0
 36 71  1  0  0  0  0
M  END
> <PUBCHEM_COMPOUND_CID>
44436732

> <PUBCHEM_COMPOUND_CANONICALIZED>
1

> <PUBCHEM_CACTVS_COMPLEXITY>
644

> <PUBCHEM_CACTVS_HBOND_ACCEPTOR>
4

> <PUBCHEM_CACTVS_HBOND_DONOR>
1

> <PUBCHEM_CACTVS_ROTATABLE_BOND>
9

> <PUBCHEM_CACTVS_SUBSKEYS>
AAADcfB7IABAAAAAAAAAAAAAAAAAASAAAAAwYMAABYAAAEgB9AAAHgQQAAAADCjB2AQwAcPAAAiMAiFSEACDAIAkCBBIiJkIBMgIYDKg1RGUIQhglgCoiYcYiMCOAAAAAAAEAAAAAAAAAAgAAAAAAAAAAA==

> <PUBCHEM_IUPAC_OPENEYE_NAME>
N-[4-(4-benzhydryl-1,4-diazepan-1-yl)butyl]benzothiophene-2-carboxamide

> <PUBCHEM_IUPAC_CAS_NAME>
N-[4-[4-(diphenylmethyl)-1,4-diazepan-1-yl]butyl]-1-benzothiophene-2-carboxamide

> <PUBCHEM_IUPAC_NAME_MARKUP>
<I>N</I>-[4-(4-benzhydryl-1,4-diazepan-1-yl)butyl]-1-benzothiophene-2-carboxamide

> <PUBCHEM_IUPAC_NAME>
N-[4-(4-benzhydryl-1,4-diazepan-1-yl)butyl]-1-benzothiophene-2-carboxamide

> <PUBCHEM_IUPAC_SYSTEMATIC_NAME>
N-[4-[4-(diphenylmethyl)-1,4-diazepan-1-yl]butyl]-1-benzothiophene-2-carboxamide

> <PUBCHEM_IUPAC_TRADITIONAL_NAME>
N-[4-(4-benzhydryl-1,4-diazepan-1-yl)butyl]benzothiophene-2-carboxamide

> <PUBCHEM_IUPAC_INCHI>
InChI=1S/C31H35N3OS/c35-31(29-24-27-16-7-8-17-28(27)36-29)32-18-9-10-19-33-20-11-21-34(23-22-33)30(25-12-3-1-4-13-25)26-14-5-2-6-15-26/h1-8,12-17,24,30H,9-11,18-23H2,(H,32,35)

> <PUBCHEM_IUPAC_INCHIKEY>
ORDQHUBWYZCTMA-UHFFFAOYSA-N

> <PUBCHEM_XLOGP3_AA>
6.7

> <PUBCHEM_EXACT_MASS>
497.25008392

> <PUBCHEM_MOLECULAR_FORMULA>
C31H35N3OS

> <PUBCHEM_MOLECULAR_WEIGHT>
497.7

> <PUBCHEM_OPENEYE_CAN_SMILES>
C1CN(CCN(C1)C(C2=CC=CC=C2)C3=CC=CC=C3)CCCCNC(=O)C4=CC5=CC=CC=C5S4

> <PUBCHEM_OPENEYE_ISO_SMILES>
C1CN(CCN(C1)C(C2=CC=CC=C2)C3=CC=CC=C3)CCCCNC(=O)C4=CC5=CC=CC=C5S4

> <PUBCHEM_CACTVS_TPSA>
63.8

> <PUBCHEM_MONOISOTOPIC_WEIGHT>
497.25008392

> <PUBCHEM_TOTAL_CHARGE>
0

> <PUBCHEM_HEAVY_ATOM_COUNT>
36

> <PUBCHEM_ATOM_DEF_STEREO_COUNT>
0

> <PUBCHEM_ATOM_UDEF_STEREO_COUNT>
0

> <PUBCHEM_BOND_DEF_STEREO_COUNT>
0

> <PUBCHEM_BOND_UDEF_STEREO_COUNT>
0

> <PUBCHEM_ISOTOPIC_ATOM_COUNT>
0

> <PUBCHEM_COMPONENT_COUNT>
1

> <PUBCHEM_CACTVS_TAUTO_COUNT>
-1

> <PUBCHEM_COORDINATE_TYPE>
1
5
255

> <PUBCHEM_BONDANNOTATIONS>
1  29  8
1  32  8
14  17  8
14  19  8
15  18  8
15  20  8
17  22  8
18  23  8
19  24  8
20  25  8
22  26  8
23  27  8
24  26  8
25  27  8
29  30  8
30  31  8
31  32  8
31  33  8
32  34  8
33  35  8
34  36  8
35  36  8

$$$$
