114876
  -OEChem-09292321592D

 46 47  0     1  0  0  0  0  0999 V2000
    2.0000   -3.6900    0.0000 O   0  0  0  0  0  0  0  0  0  0  0  0
    4.5981    0.8100    0.0000 N   0  0  3  0  0  0  0  0  0  0  0  0
    4.5981   -0.1900    0.0000 C   0  0  0  0  0  0  0  0  0  0  0  0
    5.4641    1.3100    0.0000 C   0  0  0  0  0  0  0  0  0  0  0  0
    3.7320    1.3100    0.0000 C   0  0  0  0  0  0  0  0  0  0  0  0
    3.7320   -0.6900    0.0000 C   0  0  0  0  0  0  0  0  0  0  0  0
    5.4641    2.3100    0.0000 C   0  0  0  0  0  0  0  0  0  0  0  0
    3.7320    2.3100    0.0000 C   0  0  0  0  0  0  0  0  0  0  0  0
    3.7320   -1.6900    0.0000 C   0  0  0  0  0  0  0  0  0  0  0  0
    6.3301    2.8100    0.0000 C   0  0  0  0  0  0  0  0  0  0  0  0
    2.8660    2.8100    0.0000 C   0  0  0  0  0  0  0  0  0  0  0  0
    2.8660   -2.1900    0.0000 C   0  0  0  0  0  0  0  0  0  0  0  0
    4.5981   -2.1900    0.0000 C   0  0  0  0  0  0  0  0  0  0  0  0
    6.3301    3.8100    0.0000 C   0  0  0  0  0  0  0  0  0  0  0  0
    7.1962    2.3100    0.0000 C   0  0  0  0  0  0  0  0  0  0  0  0
    2.8660   -3.1900    0.0000 C   0  0  0  0  0  0  0  0  0  0  0  0
    4.5981   -3.1900    0.0000 C   0  0  0  0  0  0  0  0  0  0  0  0
    7.1962    4.3100    0.0000 C   0  0  0  0  0  0  0  0  0  0  0  0
    8.0622    2.8100    0.0000 C   0  0  0  0  0  0  0  0  0  0  0  0
    3.7320   -3.6900    0.0000 C   0  0  0  0  0  0  0  0  0  0  0  0
    8.0622    3.8100    0.0000 C   0  0  0  0  0  0  0  0  0  0  0  0
    4.8101   -0.7726    0.0000 H   0  0  0  0  0  0  0  0  0  0  0  0
    5.2087   -0.0823    0.0000 H   0  0  0  0  0  0  0  0  0  0  0  0
    5.6762    0.7274    0.0000 H   0  0  0  0  0  0  0  0  0  0  0  0
    6.0747    1.4177    0.0000 H   0  0  0  0  0  0  0  0  0  0  0  0
    3.1215    1.4177    0.0000 H   0  0  0  0  0  0  0  0  0  0  0  0
    3.5200    0.7274    0.0000 H   0  0  0  0  0  0  0  0  0  0  0  0
    3.5200   -0.1074    0.0000 H   0  0  0  0  0  0  0  0  0  0  0  0
    3.1215   -0.7977    0.0000 H   0  0  0  0  0  0  0  0  0  0  0  0
    5.2520    2.8926    0.0000 H   0  0  0  0  0  0  0  0  0  0  0  0
    4.8535    2.2023    0.0000 H   0  0  0  0  0  0  0  0  0  0  0  0
    4.3426    2.2023    0.0000 H   0  0  0  0  0  0  0  0  0  0  0  0
    3.9441    2.8926    0.0000 H   0  0  0  0  0  0  0  0  0  0  0  0
    3.1760    3.3469    0.0000 H   0  0  0  0  0  0  0  0  0  0  0  0
    2.3291    3.1200    0.0000 H   0  0  0  0  0  0  0  0  0  0  0  0
    2.5560    2.2731    0.0000 H   0  0  0  0  0  0  0  0  0  0  0  0
    2.3291   -1.8800    0.0000 H   0  0  0  0  0  0  0  0  0  0  0  0
    5.1350   -1.8800    0.0000 H   0  0  0  0  0  0  0  0  0  0  0  0
    5.7932    4.1200    0.0000 H   0  0  0  0  0  0  0  0  0  0  0  0
    7.1962    1.6900    0.0000 H   0  0  0  0  0  0  0  0  0  0  0  0
    5.1350   -3.5000    0.0000 H   0  0  0  0  0  0  0  0  0  0  0  0
    7.1962    4.9300    0.0000 H   0  0  0  0  0  0  0  0  0  0  0  0
    8.5991    2.5000    0.0000 H   0  0  0  0  0  0  0  0  0  0  0  0
    3.7320   -4.3100    0.0000 H   0  0  0  0  0  0  0  0  0  0  0  0
    8.5991    4.1200    0.0000 H   0  0  0  0  0  0  0  0  0  0  0  0
    2.0000   -4.3100    0.0000 H   0  0  0  0  0  0  0  0  0  0  0  0
  1 16  1  0  0  0  0
  1 46  1  0  0  0  0
  2  3  1  0  0  0  0
  2  4  1  0  0  0  0
  2  5  1  0  0  0  0
  3  6  1  0  0  0  0
  3 22  1  0  0  0  0
  3 23  1  0  0  0  0
  4  7  1  0  0  0  0
  4 24  1  0  0  0  0
  4 25  1  0  0  0  0
  5  8  1  0  0  0  0
  5 26  1  0  0  0  0
  5 27  1  0  0  0  0
  6  9  1  0  0  0  0
  6 28  1  0  0  0  0
  6 29  1  0  0  0  0
  7 10  1  0  0  0  0
  7 30  1  0  0  0  0
  7 31  1  0  0  0  0
  8 11  1  0  0  0  0
  8 32  1  0  0  0  0
  8 33  1  0  0  0  0
  9 12  2  0  0  0  0
  9 13  1  0  0  0  0
 10 14  2  0  0  0  0
 10 15  1  0  0  0  0
 11 34  1  0  0  0  0
 11 35  1  0  0  0  0
 11 36  1  0  0  0  0
 12 16  1  0  0  0  0
 12 37  1  0  0  0  0
 13 17  2  0  0  0  0
 13 38  1  0  0  0  0
 14 18  1  0  0  0  0
 14 39  1  0  0  0  0
 15 19  2  0  0  0  0
 15 40  1  0  0  0  0
 16 20  2  0  0  0  0
 17 20  1  0  0  0  0
 17 41  1  0  0  0  0
 18 21  2  0  0  0  0
 18 42  1  0  0  0  0
 19 21  1  0  0  0  0
 19 43  1  0  0  0  0
 20 44  1  0  0  0  0
 21 45  1  0  0  0  0
M  END
> <PUBCHEM_COMPOUND_CID>
114876

> <PUBCHEM_COMPOUND_CANONICALIZED>
1

> <PUBCHEM_CACTVS_COMPLEXITY>
262

> <PUBCHEM_CACTVS_HBOND_ACCEPTOR>
2

> <PUBCHEM_CACTVS_HBOND_DONOR>
1

> <PUBCHEM_CACTVS_ROTATABLE_BOND>
8

> <PUBCHEM_CACTVS_SUBSKEYS>
AAADceB6IAAAAAAAAAAAAAAAAAAAAAAAAAAwYAAAAAAAAAABQAAAHgAACAAADATBmAQyBoMAAgCAAiBCAAACAAAgIAAIiAAOCIgIJiKCkROEcAAkwBGImAeQ0LIOAAABAAAAAAAAAAIAAAAAAAAAAAAAAA==

> <PUBCHEM_IUPAC_OPENEYE_NAME>
3-[2-[2-phenylethyl(propyl)amino]ethyl]phenol

> <PUBCHEM_IUPAC_CAS_NAME>
3-[2-[2-phenylethyl(propyl)amino]ethyl]phenol

> <PUBCHEM_IUPAC_NAME_MARKUP>
3-[2-[2-phenylethyl(propyl)amino]ethyl]phenol

> <PUBCHEM_IUPAC_NAME>
3-[2-[2-phenylethyl(propyl)amino]ethyl]phenol

> <PUBCHEM_IUPAC_SYSTEMATIC_NAME>
3-[2-[2-phenylethyl(propyl)amino]ethyl]phenol

> <PUBCHEM_IUPAC_TRADITIONAL_NAME>
3-[2-[phenethyl(propyl)amino]ethyl]phenol

> <PUBCHEM_IUPAC_INCHI>
InChI=1S/C19H25NO/c1-2-13-20(14-11-17-7-4-3-5-8-17)15-12-18-9-6-10-19(21)16-18/h3-10,16,21H,2,11-15H2,1H3

> <PUBCHEM_IUPAC_INCHIKEY>
QUZUPTMNMJTYGL-UHFFFAOYSA-N

> <PUBCHEM_XLOGP3_AA>
4.7

> <PUBCHEM_EXACT_MASS>
283.193614421

> <PUBCHEM_MOLECULAR_FORMULA>
C19H25NO

> <PUBCHEM_MOLECULAR_WEIGHT>
283.4

> <PUBCHEM_OPENEYE_CAN_SMILES>
CCCN(CCC1=CC=CC=C1)CCC2=CC(=CC=C2)O

> <PUBCHEM_OPENEYE_ISO_SMILES>
CCCN(CCC1=CC=CC=C1)CCC2=CC(=CC=C2)O

> <PUBCHEM_CACTVS_TPSA>
23.5

> <PUBCHEM_MONOISOTOPIC_WEIGHT>
283.193614421

> <PUBCHEM_TOTAL_CHARGE>
0

> <PUBCHEM_HEAVY_ATOM_COUNT>
21

> <PUBCHEM_ATOM_DEF_STEREO_COUNT>
0

> <PUBCHEM_ATOM_UDEF_STEREO_COUNT>
0

> <PUBCHEM_BOND_DEF_STEREO_COUNT>
0

> <PUBCHEM_BOND_UDEF_STEREO_COUNT>
0

> <PUBCHEM_ISOTOPIC_ATOM_COUNT>
0

> <PUBCHEM_COMPONENT_COUNT>
1

> <PUBCHEM_CACTVS_TAUTO_COUNT>
9

> <PUBCHEM_COORDINATE_TYPE>
1
5
255

> <PUBCHEM_BONDANNOTATIONS>
10  14  8
10  15  8
12  16  8
13  17  8
14  18  8
15  19  8
16  20  8
17  20  8
18  21  8
19  21  8
9  12  8
9  13  8

$$$$
