24936081
  -OEChem-09292321592D

 71 75  0     1  0  0  0  0  0999 V2000
   15.0706    1.0547    0.0000 S   0  0  0  0  0  0  0  0  0  0  0  0
   11.5263    1.2500    0.0000 N   0  0  3  0  0  0  0  0  0  0  0  0
    8.9282    0.7500    0.0000 N   0  0  0  0  0  0  0  0  0  0  0  0
    7.1962   -0.2500    0.0000 N   0  0  0  0  0  0  0  0  0  0  0  0
   15.0706   -0.5547    0.0000 N   0  0  0  0  0  0  0  0  0  0  0  0
   16.6542    0.2500    0.0000 N   0  0  0  0  0  0  0  0  0  0  0  0
   12.3923    0.7500    0.0000 C   0  0  3  0  0  0  0  0  0  0  0  0
   12.3923   -0.2500    0.0000 C   0  0  0  0  0  0  0  0  0  0  0  0
   13.2583    1.2500    0.0000 C   0  0  0  0  0  0  0  0  0  0  0  0
   10.6603    0.7500    0.0000 C   0  0  0  0  0  0  0  0  0  0  0  0
    9.7942    1.2500    0.0000 C   0  0  0  0  0  0  0  0  0  0  0  0
   13.2583   -0.7500    0.0000 C   0  0  0  0  0  0  0  0  0  0  0  0
   11.5263    2.2500    0.0000 C   0  0  0  0  0  0  0  0  0  0  0  0
   14.1244    0.7500    0.0000 C   0  0  0  0  0  0  0  0  0  0  0  0
    8.0622    1.2500    0.0000 C   0  0  0  0  0  0  0  0  0  0  0  0
    8.9282   -0.2500    0.0000 C   0  0  0  0  0  0  0  0  0  0  0  0
   14.1244   -0.2500    0.0000 C   0  0  0  0  0  0  0  0  0  0  0  0
    7.1962    0.7500    0.0000 C   0  0  0  0  0  0  0  0  0  0  0  0
    8.0622   -0.7500    0.0000 C   0  0  0  0  0  0  0  0  0  0  0  0
   10.6603    2.7500    0.0000 C   0  0  0  0  0  0  0  0  0  0  0  0
    6.3301   -0.7500    0.0000 C   0  0  0  0  0  0  0  0  0  0  0  0
   15.6542    0.2500    0.0000 C   0  0  0  0  0  0  0  0  0  0  0  0
   10.6603    3.7500    0.0000 C   0  0  0  0  0  0  0  0  0  0  0  0
    6.3301   -1.7500    0.0000 C   0  0  0  0  0  0  0  0  0  0  0  0
    5.4641   -0.2500    0.0000 C   0  0  0  0  0  0  0  0  0  0  0  0
    5.4641   -2.2500    0.0000 C   0  0  0  0  0  0  0  0  0  0  0  0
    4.5981   -0.7500    0.0000 C   0  0  0  0  0  0  0  0  0  0  0  0
    4.5981   -1.7500    0.0000 C   0  0  0  0  0  0  0  0  0  0  0  0
    3.7320   -2.2500    0.0000 C   0  0  0  0  0  0  0  0  0  0  0  0
    3.7320   -3.2500    0.0000 C   0  0  0  0  0  0  0  0  0  0  0  0
    2.8660   -1.7500    0.0000 C   0  0  0  0  0  0  0  0  0  0  0  0
    2.8660   -3.7500    0.0000 C   0  0  0  0  0  0  0  0  0  0  0  0
    2.0000   -2.2500    0.0000 C   0  0  0  0  0  0  0  0  0  0  0  0
    2.0000   -3.2500    0.0000 C   0  0  0  0  0  0  0  0  0  0  0  0
   11.8554    0.4400    0.0000 H   0  0  0  0  0  0  0  0  0  0  0  0
   11.7817   -0.1423    0.0000 H   0  0  0  0  0  0  0  0  0  0  0  0
   12.1803   -0.8326    0.0000 H   0  0  0  0  0  0  0  0  0  0  0  0
   13.6569    1.7250    0.0000 H   0  0  0  0  0  0  0  0  0  0  0  0
   12.8598    1.7250    0.0000 H   0  0  0  0  0  0  0  0  0  0  0  0
   10.2617    0.2751    0.0000 H   0  0  0  0  0  0  0  0  0  0  0  0
   11.0588    0.2751    0.0000 H   0  0  0  0  0  0  0  0  0  0  0  0
   10.1928    1.7250    0.0000 H   0  0  0  0  0  0  0  0  0  0  0  0
    9.3957    1.7250    0.0000 H   0  0  0  0  0  0  0  0  0  0  0  0
   12.8598   -1.2250    0.0000 H   0  0  0  0  0  0  0  0  0  0  0  0
   13.6569   -1.2250    0.0000 H   0  0  0  0  0  0  0  0  0  0  0  0
   12.1369    2.1423    0.0000 H   0  0  0  0  0  0  0  0  0  0  0  0
   11.7383    2.8326    0.0000 H   0  0  0  0  0  0  0  0  0  0  0  0
    8.4607    1.7250    0.0000 H   0  0  0  0  0  0  0  0  0  0  0  0
    7.6636    1.7250    0.0000 H   0  0  0  0  0  0  0  0  0  0  0  0
    9.1403   -0.8326    0.0000 H   0  0  0  0  0  0  0  0  0  0  0  0
    9.5388   -0.1423    0.0000 H   0  0  0  0  0  0  0  0  0  0  0  0
    6.9841    1.3326    0.0000 H   0  0  0  0  0  0  0  0  0  0  0  0
    6.5856    0.6423    0.0000 H   0  0  0  0  0  0  0  0  0  0  0  0
    7.6636   -1.2250    0.0000 H   0  0  0  0  0  0  0  0  0  0  0  0
    8.4607   -1.2250    0.0000 H   0  0  0  0  0  0  0  0  0  0  0  0
   10.0497    2.8577    0.0000 H   0  0  0  0  0  0  0  0  0  0  0  0
   10.4482    2.1674    0.0000 H   0  0  0  0  0  0  0  0  0  0  0  0
   11.2803    3.7500    0.0000 H   0  0  0  0  0  0  0  0  0  0  0  0
   10.6603    4.3700    0.0000 H   0  0  0  0  0  0  0  0  0  0  0  0
   10.0403    3.7500    0.0000 H   0  0  0  0  0  0  0  0  0  0  0  0
    6.8671   -2.0600    0.0000 H   0  0  0  0  0  0  0  0  0  0  0  0
    5.4641    0.3700    0.0000 H   0  0  0  0  0  0  0  0  0  0  0  0
   16.9642   -0.2869    0.0000 H   0  0  0  0  0  0  0  0  0  0  0  0
   16.9642    0.7869    0.0000 H   0  0  0  0  0  0  0  0  0  0  0  0
    5.4641   -2.8700    0.0000 H   0  0  0  0  0  0  0  0  0  0  0  0
    4.0611   -0.4400    0.0000 H   0  0  0  0  0  0  0  0  0  0  0  0
    4.2690   -3.5600    0.0000 H   0  0  0  0  0  0  0  0  0  0  0  0
    2.8660   -1.1300    0.0000 H   0  0  0  0  0  0  0  0  0  0  0  0
    2.8660   -4.3700    0.0000 H   0  0  0  0  0  0  0  0  0  0  0  0
    1.4631   -1.9400    0.0000 H   0  0  0  0  0  0  0  0  0  0  0  0
    1.4631   -3.5600    0.0000 H   0  0  0  0  0  0  0  0  0  0  0  0
  1 14  1  0  0  0  0
  1 22  1  0  0  0  0
  2  7  1  0  0  0  0
  2 10  1  0  0  0  0
  2 13  1  0  0  0  0
  3 11  1  0  0  0  0
  3 15  1  0  0  0  0
  3 16  1  0  0  0  0
  4 18  1  0  0  0  0
  4 19  1  0  0  0  0
  4 21  1  0  0  0  0
  5 17  1  0  0  0  0
  5 22  2  0  0  0  0
  6 22  1  0  0  0  0
  6 63  1  0  0  0  0
  6 64  1  0  0  0  0
  7  8  1  0  0  0  0
  7  9  1  0  0  0  0
  7 35  1  0  0  0  0
  8 12  1  0  0  0  0
  8 36  1  0  0  0  0
  8 37  1  0  0  0  0
  9 14  1  0  0  0  0
  9 38  1  0  0  0  0
  9 39  1  0  0  0  0
 10 11  1  0  0  0  0
 10 40  1  0  0  0  0
 10 41  1  0  0  0  0
 11 42  1  0  0  0  0
 11 43  1  0  0  0  0
 12 17  1  0  0  0  0
 12 44  1  0  0  0  0
 12 45  1  0  0  0  0
 13 20  1  0  0  0  0
 13 46  1  0  0  0  0
 13 47  1  0  0  0  0
 14 17  2  0  0  0  0
 15 18  1  0  0  0  0
 15 48  1  0  0  0  0
 15 49  1  0  0  0  0
 16 19  1  0  0  0  0
 16 50  1  0  0  0  0
 16 51  1  0  0  0  0
 18 52  1  0  0  0  0
 18 53  1  0  0  0  0
 19 54  1  0  0  0  0
 19 55  1  0  0  0  0
 20 23  1  0  0  0  0
 20 56  1  0  0  0  0
 20 57  1  0  0  0  0
 21 24  2  0  0  0  0
 21 25  1  0  0  0  0
 23 58  1  0  0  0  0
 23 59  1  0  0  0  0
 23 60  1  0  0  0  0
 24 26  1  0  0  0  0
 24 61  1  0  0  0  0
 25 27  2  0  0  0  0
 25 62  1  0  0  0  0
 26 28  2  0  0  0  0
 26 65  1  0  0  0  0
 27 28  1  0  0  0  0
 27 66  1  0  0  0  0
 28 29  1  0  0  0  0
 29 30  2  0  0  0  0
 29 31  1  0  0  0  0
 30 32  1  0  0  0  0
 30 67  1  0  0  0  0
 31 33  2  0  0  0  0
 31 68  1  0  0  0  0
 32 34  2  0  0  0  0
 32 69  1  0  0  0  0
 33 34  1  0  0  0  0
 33 70  1  0  0  0  0
 34 71  1  0  0  0  0
M  END
> <PUBCHEM_COMPOUND_CID>
24936081

> <PUBCHEM_COMPOUND_CANONICALIZED>
1

> <PUBCHEM_CACTVS_COMPLEXITY>
598

> <PUBCHEM_CACTVS_HBOND_ACCEPTOR>
6

> <PUBCHEM_CACTVS_HBOND_DONOR>
1

> <PUBCHEM_CACTVS_ROTATABLE_BOND>
8

> <PUBCHEM_CACTVS_SUBSKEYS>
AAADcfB7gABAAAAAAAAAAAAAAAAAAWAAAAA8YMEAAAAAAFgB0AAAHAQQAAAADCjBXgQz0ZNIEAikAyRiZACC8KlhCjkImBQ4ZIiIYCLgkZGUIAhggALIyCcQgMAOiAAAAAAAAAAQAQAAQAACAAAAAAAAAA==

> <PUBCHEM_IUPAC_OPENEYE_NAME>
N6-[2-[4-(4-phenylphenyl)piperazin-1-yl]ethyl]-N6-propyl-4,5,6,7-tetrahydro-1,3-benzothiazole-2,6-diamine

> <PUBCHEM_IUPAC_CAS_NAME>
N6-[2-[4-(4-phenylphenyl)-1-piperazinyl]ethyl]-N6-propyl-4,5,6,7-tetrahydro-1,3-benzothiazole-2,6-diamine

> <PUBCHEM_IUPAC_NAME_MARKUP>
6-<I>N</I>-[2-[4-(4-phenylphenyl)piperazin-1-yl]ethyl]-6-<I>N</I>-propyl-4,5,6,7-tetrahydro-1,3-benzothiazole-2,6-diamine

> <PUBCHEM_IUPAC_NAME>
6-N-[2-[4-(4-phenylphenyl)piperazin-1-yl]ethyl]-6-N-propyl-4,5,6,7-tetrahydro-1,3-benzothiazole-2,6-diamine

> <PUBCHEM_IUPAC_SYSTEMATIC_NAME>
N6-[2-[4-(4-phenylphenyl)piperazin-1-yl]ethyl]-N6-propyl-4,5,6,7-tetrahydro-1,3-benzothiazole-2,6-diamine

> <PUBCHEM_IUPAC_TRADITIONAL_NAME>
(2-amino-4,5,6,7-tetrahydro-1,3-benzothiazol-6-yl)-[2-[4-(4-phenylphenyl)piperazino]ethyl]-propyl-amine

> <PUBCHEM_IUPAC_INCHI>
InChI=1S/C28H37N5S/c1-2-14-32(25-12-13-26-27(21-25)34-28(29)30-26)18-15-31-16-19-33(20-17-31)24-10-8-23(9-11-24)22-6-4-3-5-7-22/h3-11,25H,2,12-21H2,1H3,(H2,29,30)

> <PUBCHEM_IUPAC_INCHIKEY>
YDLWLYDTYNHXBM-UHFFFAOYSA-N

> <PUBCHEM_XLOGP3_AA>
5.6

> <PUBCHEM_EXACT_MASS>
475.27696738

> <PUBCHEM_MOLECULAR_FORMULA>
C28H37N5S

> <PUBCHEM_MOLECULAR_WEIGHT>
475.7

> <PUBCHEM_OPENEYE_CAN_SMILES>
CCCN(CCN1CCN(CC1)C2=CC=C(C=C2)C3=CC=CC=C3)C4CCC5=C(C4)SC(=N5)N

> <PUBCHEM_OPENEYE_ISO_SMILES>
CCCN(CCN1CCN(CC1)C2=CC=C(C=C2)C3=CC=CC=C3)C4CCC5=C(C4)SC(=N5)N

> <PUBCHEM_CACTVS_TPSA>
76.9

> <PUBCHEM_MONOISOTOPIC_WEIGHT>
475.27696738

> <PUBCHEM_TOTAL_CHARGE>
0

> <PUBCHEM_HEAVY_ATOM_COUNT>
34

> <PUBCHEM_ATOM_DEF_STEREO_COUNT>
0

> <PUBCHEM_ATOM_UDEF_STEREO_COUNT>
1

> <PUBCHEM_BOND_DEF_STEREO_COUNT>
0

> <PUBCHEM_BOND_UDEF_STEREO_COUNT>
0

> <PUBCHEM_ISOTOPIC_ATOM_COUNT>
0

> <PUBCHEM_COMPONENT_COUNT>
1

> <PUBCHEM_CACTVS_TAUTO_COUNT>
-1

> <PUBCHEM_COORDINATE_TYPE>
1
5
255

> <PUBCHEM_BONDANNOTATIONS>
1  14  8
1  22  8
14  17  8
7  2  3
21  24  8
21  25  8
24  26  8
25  27  8
26  28  8
27  28  8
29  30  8
29  31  8
30  32  8
31  33  8
32  34  8
33  34  8
5  17  8
5  22  8

$$$$
